New Loadshape.MyIrrad npts=96 minterval=15 mult=[0.000000, 0.000000, 0.000000, 0.000648, 0.000000, 0.000041, 0.000000, 0.000000, 0.000000, 0.000044, 0.000000, 0.000030, 0.000044, 0.000000, 0.000000, 0.000000, 0.000045, 0.000086, 0.000000, 0.000000, 0.000074, 0.000019, 0.000000, 0.000213, 0.002970, 0.017994, 0.035231, 0.027660, 0.023096, 0.019086, 0.040050, 0.109988, 0.220075, 0.216521, 0.326405, 0.396812, 0.335267, 0.570796, 0.497509, 0.661911, 0.805226, 0.831400, 0.613972, 0.707062, 0.822875, 0.667561, 0.705650, 0.693769, 0.731092, 0.764303, 0.917538, 1.000000, 0.956330, 0.628827, 0.452451, 0.449652, 0.583467, 0.777201, 0.515685, 0.769390, 0.761144, 0.579274, 0.663362, 0.511969, 0.098780, 0.110627, 0.090900, 0.058318, 0.045869, 0.194871, 0.137381, 0.130383, 0.062235, 0.016055, 0.015124, 0.000891, 0.000000, 0.000000, 0.000000, 0.000000, 0.000000, 0.000000, 0.000000, 0.000000, 0.000000, 0.000000, 0.000000, 0.000000, 0.000000, 0.000000, 0.000000, 0.000000, 0.000000, 0.000000, 0.000000, 0.000000]