

New LoadShape.continuo_0 Npts=576 minterval=15
~ Mult=(0.4400, 0.4000, 0.4000, 0.3800, 0.3700, 0.3500, 0.3800, 0.3400, 0.3400, 0.3300, 0.3400, 0.3400, 0.3200, 0.3300, 0.3400, 0.3400, 0.3200, 0.3100, 0.3300, 0.3300, 0.3400, 0.3200, 0.3300, 0.3500, 0.3700, 0.3400, 0.3600, 0.3800, 0.5300, 0.5000, 0.4100, 0.3500, 0.4000, 0.4500, 0.4400, 0.4300, 0.4400, 0.4100, 0.4400, 0.4200, 0.4100, 0.4300, 0.3700, 0.3800, 0.3700, 0.4100, 0.3700, 0.4100, 0.4800, 0.4700, 0.4500, 0.4500, 0.4300, 0.5000, 0.4400, 0.3700, 0.3700, 0.3900, 0.4100, 0.4400, 0.4200, 0.4400, 0.4500, 0.4600, 0.5800, 0.4800, 0.5000, 0.5500, 0.4700, 0.6000, 0.7900, 0.8800, 0.9100, 0.9700, 1.0000, 0.9500, 0.9800, 0.9800, 0.9000, 0.9400, 0.9600, 0.8700, 0.7800, 0.7600, 0.7700, 0.6900, 0.7200, 0.8000, 0.7400, 0.7600, 0.8300, 0.6400, 0.6700, 0.6000, 0.5600, 0.5000, 0.2900, 0.2600, 0.2400, 0.2200, 0.2000, 0.2000, 0.1800, 0.1700, 0.1700, 0.1700, 0.1700, 0.1700, 0.1600, 0.1600, 0.1600, 0.1600, 0.1600, 0.1500, 0.1500, 0.1500, 0.2000, 0.2500, 0.3800, 0.4900, 0.2600, 0.2600, 0.2400, 0.2400, 0.2100, 0.2400, 0.1900, 0.1900, 0.2300, 0.2400, 0.2100, 0.2300, 0.2600, 0.2300, 0.2400, 0.2800, 0.2500, 0.2500, 0.2300, 0.2700, 0.3900, 0.4100, 0.3400, 0.2800, 0.2700, 0.3100, 0.2600, 0.2400, 0.2600, 0.2300, 0.2600, 0.2300, 0.2500, 0.2400, 0.2400, 0.2400, 0.2500, 0.2600, 0.2700, 0.2800, 0.2700, 0.3000, 0.3300, 0.2800, 0.3800, 0.5000, 0.6900, 0.8200, 1.0000, 0.9500, 0.8500, 0.8600, 0.7900, 0.7700, 0.7600, 0.7600, 0.7200, 0.7700, 0.7300, 0.6600, 0.6500, 0.6000, 0.5800, 0.5600, 0.5300, 0.5000, 0.4600, 0.4600, 0.3800, 0.3700, 0.3500, 0.3200, 0.5193, 0.5163, 0.5011, 0.4422, 0.4300, 0.4300, 0.4250, 0.4237, 0.4300, 0.4352, 0.4388, 0.4764, 0.4622, 0.4303, 0.4100, 0.3808, 0.3934, 0.5070, 0.4220, 0.4067, 0.4100, 0.4185, 0.4154, 0.4378, 0.4533, 0.4289, 0.4131, 0.4200, 0.5514, 0.4076, 0.3700, 0.3510, 0.3790, 0.3846, 0.3625, 0.3800, 0.4396, 0.4400, 0.4426, 0.4707, 0.4445, 0.4985, 0.6156, 0.5723, 0.4624, 0.3978, 0.4211, 0.4078, 0.6637, 0.7449, 0.4897, 0.5665, 0.5700, 0.5800, 0.5853, 0.6042, 0.5200, 0.5134, 0.5209, 0.6385, 0.6390, 0.6500, 0.7000, 0.7300, 0.7500, 0.7995, 0.6484, 0.5332, 0.4506, 0.4718, 0.6464, 0.6600, 0.6875, 0.7894, 0.9894, 1.0000, 0.9913, 0.8983, 0.8930, 0.8922, 0.7346, 0.6864, 0.8173, 0.8200, 0.8400, 0.8568, 0.9760, 0.8000, 0.7378, 0.7000, 0.6952, 0.5880, 0.5552, 0.5397, 0.5200, 0.5121, 0.3014, 0.3634, 0.3500, 0.3446, 0.3300, 0.3493, 0.3185, 0.3300, 0.3503, 0.3300, 0.3500, 0.3857, 0.4036, 0.4100, 0.4050, 0.3600, 0.3327, 0.3359, 0.3516, 0.3500, 0.3557, 0.3322, 0.3306, 0.3035, 0.2309, 0.2185, 0.2393, 0.2200, 0.2235, 0.1987, 0.2320, 0.2605, 0.3700, 0.4300, 0.5500, 0.6200, 0.6069, 0.6000, 0.6027, 0.5891, 0.5454, 0.5346, 0.5969, 0.6591, 0.6273, 0.6254, 0.6832, 0.6954, 0.7117, 0.6982, 0.6913, 0.6539, 0.6687, 0.6551, 0.6624, 0.6795, 0.7444, 0.7124, 0.7609, 0.8449, 0.8022, 0.8162, 0.8031, 0.7123, 0.7319, 0.9056, 0.9200, 0.9500, 0.9800, 1.0000, 0.8467, 0.8518, 0.8467, 0.8522, 0.8600, 0.8800, 0.8907, 0.8042, 0.7655, 0.7422, 0.7738, 0.7512, 0.7496, 0.8465, 0.7832, 0.8000, 0.8140, 0.8431, 0.8352, 0.8296, 0.8500, 0.7867, 0.8105, 0.7637, 0.7071, 0.7400, 0.1700, 0.1600, 0.1700, 0.1500, 0.1700, 0.1600, 0.1500, 0.1800, 0.1600, 0.1500, 0.1700, 0.1400, 0.1500, 0.1600, 0.1400, 0.1700, 0.1900, 0.1900, 0.1700, 0.1800, 0.1400, 0.1900, 0.1500, 0.1700, 0.1700, 0.1700, 0.1200, 0.1400, 0.1500, 0.1500, 0.1900, 0.1100, 0.2100, 0.1800, 0.1400, 0.1400, 0.2700, 0.2200, 0.2000, 0.3700, 0.2100, 0.4100, 0.2500, 0.3500, 0.3000, 0.3000, 0.3100, 0.1800, 0.2400, 0.2300, 0.1600, 0.1600, 0.1900, 0.2100, 0.3800, 0.2300, 0.3000, 0.2200, 0.1900, 0.2000, 0.2300, 0.3200, 0.2300, 0.1700, 0.1700, 0.1600, 0.1800, 0.3000, 0.3500, 0.3400, 0.7000, 0.9500, 0.7800, 0.5600, 0.7300, 0.6900, 1.0000, 0.8100, 0.7700, 0.8100, 0.7200, 0.7700, 0.7600, 0.6800, 0.5100, 0.6200, 0.8500, 0.6400, 0.5100, 0.4700, 0.4300, 0.4300, 0.2700, 0.2100, 0.1800, 0.2000, 0.3600, 0.3200, 0.3000, 0.2800, 0.2600, 0.2500, 0.2500, 0.2300, 0.2300, 0.2200, 0.2100, 0.2100, 0.2200, 0.2100, 0.2100, 0.2000, 0.1900, 0.2100, 0.2200, 0.2100, 0.2400, 0.2700, 0.3900, 0.6100, 0.5800, 0.6800, 0.4000, 0.3100, 0.3400, 0.4600, 0.4800, 0.3300, 0.2500, 0.2500, 0.2400, 0.2700, 0.2800, 0.2700, 0.3200, 0.2700, 0.2500, 0.2900, 0.3200, 0.3600, 0.4400, 0.4300, 0.4000, 0.4500, 0.3800, 0.4400, 0.4000, 0.3400, 0.3300, 0.3600, 0.4100, 0.3700, 0.3700, 0.3600, 0.3900, 0.3700, 0.3500, 0.3400, 0.3700, 0.3200, 0.3600, 0.3900, 0.4000, 0.4500, 0.5000, 0.4400, 0.5500, 0.7700, 0.7600, 0.8400, 0.8900, 0.9600, 1.0000, 0.9600, 0.9400, 0.8600, 0.8300, 0.7900, 0.7800, 0.7200, 0.6900, 0.6900, 0.7000, 0.6700, 0.6200, 0.6600, 0.5900, 0.5300, 0.4600, 0.4500, 0.4500, 0.4100)


New LoadShape.continuo_1 Npts=576 minterval=15 
 ~ Mult=(0.1700, 0.1600, 0.1700, 0.1500, 0.1700, 0.1600, 0.1500, 0.1800, 0.1600, 0.1500, 0.1700, 0.1400, 0.1500, 0.1600, 0.1400, 0.1700, 0.1900, 0.1900, 0.1700, 0.1800, 0.1400, 0.1900, 0.1500, 0.1700, 0.1700, 0.1700, 0.1200, 0.1400, 0.1500, 0.1500, 0.1900, 0.1100, 0.2100, 0.1800, 0.1400, 0.1400, 0.2700, 0.2200, 0.2000, 0.3700, 0.2100, 0.4100, 0.2500, 0.3500, 0.3000, 0.3000, 0.3100, 0.1800, 0.2400, 0.2300, 0.1600, 0.1600, 0.1900, 0.2100, 0.3800, 0.2300, 0.3000, 0.2200, 0.1900, 0.2000, 0.2300, 0.3200, 0.2300, 0.1700, 0.1700, 0.1600, 0.1800, 0.3000, 0.3500, 0.3400, 0.7000, 0.9500, 0.7800, 0.5600, 0.7300, 0.6900, 1.0000, 0.8100, 0.7700, 0.8100, 0.7200, 0.7700, 0.7600, 0.6800, 0.5100, 0.6200, 0.8500, 0.6400, 0.5100, 0.4700, 0.4300, 0.4300, 0.2700, 0.2100, 0.1800, 0.2000, 0.2900, 0.2600, 0.2400, 0.2200, 0.2000, 0.2000, 0.1800, 0.1700, 0.1700, 0.1700, 0.1700, 0.1700, 0.1600, 0.1600, 0.1600, 0.1600, 0.1600, 0.1500, 0.1500, 0.1500, 0.2000, 0.2500, 0.3800, 0.4900, 0.2600, 0.2600, 0.2400, 0.2400, 0.2100, 0.2400, 0.1900, 0.1900, 0.2300, 0.2400, 0.2100, 0.2300, 0.2600, 0.2300, 0.2400, 0.2800, 0.2500, 0.2500, 0.2300, 0.2700, 0.3900, 0.4100, 0.3400, 0.2800, 0.2700, 0.3100, 0.2600, 0.2400, 0.2600, 0.2300, 0.2600, 0.2300, 0.2500, 0.2400, 0.2400, 0.2400, 0.2500, 0.2600, 0.2700, 0.2800, 0.2700, 0.3000, 0.3300, 0.2800, 0.3800, 0.5000, 0.6900, 0.8200, 1.0000, 0.9500, 0.8500, 0.8600, 0.7900, 0.7700, 0.7600, 0.7600, 0.7200, 0.7700, 0.7300, 0.6600, 0.6500, 0.6000, 0.5800, 0.5600, 0.5300, 0.5000, 0.4600, 0.4600, 0.3800, 0.3700, 0.3500, 0.3200, 0.4008, 0.3562, 0.3604, 0.3866, 0.3114, 0.2923, 0.2747, 0.2600, 0.2522, 0.2273, 0.2618, 0.2526, 0.2450, 0.2849, 0.2451, 0.2301, 0.2631, 0.2504, 0.2742, 0.2518, 0.2217, 0.2231, 0.2587, 0.2448, 0.2434, 0.2515, 0.2600, 0.2811, 0.2672, 0.3268, 0.4058, 0.3584, 0.3154, 0.3336, 0.3463, 0.3500, 0.3654, 0.4100, 0.4105, 0.4106, 0.4012, 0.3775, 0.4012, 0.7192, 0.7500, 0.8349, 0.7159, 0.3931, 0.3985, 0.4364, 0.4514, 0.5099, 0.8623, 0.7500, 0.6261, 0.5454, 0.5300, 0.5176, 0.4887, 0.4875, 0.6803, 0.5358, 0.5469, 0.4516, 0.4212, 0.6456, 0.6000, 0.5959, 0.5900, 0.5874, 0.6957, 1.0000, 0.9360, 0.8262, 0.8260, 0.8266, 0.8000, 0.8537, 0.8700, 0.9209, 0.7414, 0.6093, 0.5500, 0.5313, 0.5284, 0.5100, 0.5093, 0.5000, 0.4959, 0.4822, 0.4584, 0.5878, 0.7654, 0.6800, 0.4623, 0.4665, 0.5965, 0.5959, 0.5514, 0.5300, 0.4985, 0.5068, 0.5013, 0.4437, 0.4038, 0.4031, 0.3983, 0.3909, 0.3958, 0.3801, 0.3613, 0.3595, 0.3400, 0.3200, 0.3173, 0.3142, 0.3478, 0.3347, 0.3673, 0.3601, 0.3600, 0.3619, 0.3414, 0.3388, 0.3200, 0.3188, 0.3421, 0.3676, 0.3838, 0.3900, 0.4048, 0.3864, 0.3624, 0.3818, 0.3559, 0.3883, 0.4468, 0.4577, 0.4346, 0.4655, 0.4572, 0.4859, 0.4927, 0.5106, 0.4695, 0.4634, 0.5395, 0.6392, 0.6856, 0.5189, 0.5709, 0.6097, 0.7004, 0.8017, 0.6763, 0.6102, 0.5504, 0.5416, 0.5345, 0.5011, 0.5211, 0.5109, 0.5161, 0.5046, 0.5316, 0.5400, 0.5517, 0.5854, 0.5900, 0.6136, 0.6200, 0.6308, 0.6118, 0.6300, 0.6424, 0.6016, 0.6676, 0.5598, 0.6451, 0.9806, 1.0000, 0.9300, 0.8700, 0.8500, 0.8230, 0.6203, 0.6125, 0.6000, 0.6700, 0.6969, 0.5438, 0.5044, 0.3600, 0.3200, 0.3000, 0.2800, 0.2600, 0.2500, 0.2500, 0.2300, 0.2300, 0.2200, 0.2100, 0.2100, 0.2200, 0.2100, 0.2100, 0.2000, 0.1900, 0.2100, 0.2200, 0.2100, 0.2400, 0.2700, 0.3900, 0.6100, 0.5800, 0.6800, 0.4000, 0.3100, 0.3400, 0.4600, 0.4800, 0.3300, 0.2500, 0.2500, 0.2400, 0.2700, 0.2800, 0.2700, 0.3200, 0.2700, 0.2500, 0.2900, 0.3200, 0.3600, 0.4400, 0.4300, 0.4000, 0.4500, 0.3800, 0.4400, 0.4000, 0.3400, 0.3300, 0.3600, 0.4100, 0.3700, 0.3700, 0.3600, 0.3900, 0.3700, 0.3500, 0.3400, 0.3700, 0.3200, 0.3600, 0.3900, 0.4000, 0.4500, 0.5000, 0.4400, 0.5500, 0.7700, 0.7600, 0.8400, 0.8900, 0.9600, 1.0000, 0.9600, 0.9400, 0.8600, 0.8300, 0.7900, 0.7800, 0.7200, 0.6900, 0.6900, 0.7000, 0.6700, 0.6200, 0.6600, 0.5900, 0.5300, 0.4600, 0.4500, 0.4500, 0.4100, 0.4400, 0.4000, 0.4000, 0.3800, 0.3700, 0.3500, 0.3800, 0.3400, 0.3400, 0.3300, 0.3400, 0.3400, 0.3200, 0.3300, 0.3400, 0.3400, 0.3200, 0.3100, 0.3300, 0.3300, 0.3400, 0.3200, 0.3300, 0.3500, 0.3700, 0.3400, 0.3600, 0.3800, 0.5300, 0.5000, 0.4100, 0.3500, 0.4000, 0.4500, 0.4400, 0.4300, 0.4400, 0.4100, 0.4400, 0.4200, 0.4100, 0.4300, 0.3700, 0.3800, 0.3700, 0.4100, 0.3700, 0.4100, 0.4800, 0.4700, 0.4500, 0.4500, 0.4300, 0.5000, 0.4400, 0.3700, 0.3700, 0.3900, 0.4100, 0.4400, 0.4200, 0.4400, 0.4500, 0.4600, 0.5800, 0.4800, 0.5000, 0.5500, 0.4700, 0.6000, 0.7900, 0.8800, 0.9100, 0.9700, 1.0000, 0.9500, 0.9800, 0.9800, 0.9000, 0.9400, 0.9600, 0.8700, 0.7800, 0.7600, 0.7700, 0.6900, 0.7200, 0.8000, 0.7400, 0.7600, 0.8300, 0.6400, 0.6700, 0.6000, 0.5600, 0.5000)

New LoadShape.continuo_2 Npts=576 minterval=15
 ~ Mult=(0.3600, 0.3200, 0.3000, 0.2800, 0.2600, 0.2500, 0.2500, 0.2300, 0.2300, 0.2200, 0.2100, 0.2100, 0.2200, 0.2100, 0.2100, 0.2000, 0.1900, 0.2100, 0.2200, 0.2100, 0.2400, 0.2700, 0.3900, 0.6100, 0.5800, 0.6800, 0.4000, 0.3100, 0.3400, 0.4600, 0.4800, 0.3300, 0.2500, 0.2500, 0.2400, 0.2700, 0.2800, 0.2700, 0.3200, 0.2700, 0.2500, 0.2900, 0.3200, 0.3600, 0.4400, 0.4300, 0.4000, 0.4500, 0.3800, 0.4400, 0.4000, 0.3400, 0.3300, 0.3600, 0.4100, 0.3700, 0.3700, 0.3600, 0.3900, 0.3700, 0.3500, 0.3400, 0.3700, 0.3200, 0.3600, 0.3900, 0.4000, 0.4500, 0.5000, 0.4400, 0.5500, 0.7700, 0.7600, 0.8400, 0.8900, 0.9600, 1.0000, 0.9600, 0.9400, 0.8600, 0.8300, 0.7900, 0.7800, 0.7200, 0.6900, 0.6900, 0.7000, 0.6700, 0.6200, 0.6600, 0.5900, 0.5300, 0.4600, 0.4500, 0.4500, 0.4100, 0.4400, 0.4000, 0.4000, 0.3800, 0.3700, 0.3500, 0.3800, 0.3400, 0.3400, 0.3300, 0.3400, 0.3400, 0.3200, 0.3300, 0.3400, 0.3400, 0.3200, 0.3100, 0.3300, 0.3300, 0.3400, 0.3200, 0.3300, 0.3500, 0.3700, 0.3400, 0.3600, 0.3800, 0.5300, 0.5000, 0.4100, 0.3500, 0.4000, 0.4500, 0.4400, 0.4300, 0.4400, 0.4100, 0.4400, 0.4200, 0.4100, 0.4300, 0.3700, 0.3800, 0.3700, 0.4100, 0.3700, 0.4100, 0.4800, 0.4700, 0.4500, 0.4500, 0.4300, 0.5000, 0.4400, 0.3700, 0.3700, 0.3900, 0.4100, 0.4400, 0.4200, 0.4400, 0.4500, 0.4600, 0.5800, 0.4800, 0.5000, 0.5500, 0.4700, 0.6000, 0.7900, 0.8800, 0.9100, 0.9700, 1.0000, 0.9500, 0.9800, 0.9800, 0.9000, 0.9400, 0.9600, 0.8700, 0.7800, 0.7600, 0.7700, 0.6900, 0.7200, 0.8000, 0.7400, 0.7600, 0.8300, 0.6400, 0.6700, 0.6000, 0.5600, 0.5000, 0.3775, 0.3964, 0.4032, 0.3940, 0.3809, 0.3816, 0.3838, 0.3596, 0.3641, 0.3479, 0.3157, 0.3366, 0.3292, 0.3052, 0.3439, 0.3152, 0.2526, 0.2878, 0.3251, 0.2791, 0.2738, 0.2959, 0.3010, 0.2620, 0.4337, 0.3879, 0.2663, 0.3133, 0.2908, 0.2767, 0.2865, 0.5663, 0.5500, 0.5169, 0.4153, 0.3652, 0.3290, 0.3472, 0.3450, 0.3490, 0.3646, 0.3800, 0.4200, 0.4255, 0.4837, 0.4458, 0.4500, 0.4576, 0.5445, 0.4324, 0.4196, 0.4542, 0.4867, 0.4107, 0.3870, 0.3700, 0.3680, 0.3636, 0.4083, 0.4099, 0.4481, 0.4349, 0.4086, 0.5380, 0.6697, 0.5425, 0.5321, 0.5400, 0.5582, 0.5500, 0.5560, 0.6021, 0.5850, 0.5777, 0.6307, 0.6400, 0.6525, 0.6981, 0.7300, 0.7662, 0.7786, 1.0000, 0.9300, 0.8500, 0.5947, 0.5365, 0.5687, 0.7769, 0.7800, 0.8000, 0.8385, 0.5421, 0.5383, 0.4925, 0.4604, 0.5332, 0.2784, 0.3000, 0.3325, 0.3295, 0.3421, 0.3245, 0.3178, 0.2757, 0.2649, 0.2644, 0.2684, 0.2496, 0.2889, 0.4794, 0.4300, 0.4000, 0.3600, 0.3410, 0.2807, 0.2611, 0.2302, 0.2672, 0.2440, 0.2145, 0.1922, 0.3148, 0.3200, 0.3250, 0.3300, 0.3600, 0.3750, 0.3850, 0.4000, 0.4300, 0.4500, 0.2536, 0.2284, 0.2483, 0.2360, 0.2456, 0.2170, 0.3582, 0.3600, 0.3749, 0.3900, 0.4200, 0.4450, 0.4600, 0.4696, 0.4127, 0.4200, 0.4300, 0.4500, 0.4741, 0.4000, 0.4100, 0.4050, 0.4200, 0.4500, 0.4873, 0.4847, 0.5000, 0.5800, 0.6300, 0.5500, 0.5700, 0.6300, 0.6800, 0.7000, 0.7523, 0.6140, 0.5522, 0.5328, 0.5535, 0.5396, 0.7981, 0.7700, 0.7593, 0.9771, 0.9500, 0.8860, 1.0000, 0.5434, 0.5594, 0.5484, 0.5058, 0.4779, 0.5000, 0.3985, 0.3689, 0.3762, 0.4632, 0.4146, 0.3520, 0.3608, 0.4290, 0.2900, 0.2600, 0.2400, 0.2200, 0.2000, 0.2000, 0.1800, 0.1700, 0.1700, 0.1700, 0.1700, 0.1700, 0.1600, 0.1600, 0.1600, 0.1600, 0.1600, 0.1500, 0.1500, 0.1500, 0.2000, 0.2500, 0.3800, 0.4900, 0.2600, 0.2600, 0.2400, 0.2400, 0.2100, 0.2400, 0.1900, 0.1900, 0.2300, 0.2400, 0.2100, 0.2300, 0.2600, 0.2300, 0.2400, 0.2800, 0.2500, 0.2500, 0.2300, 0.2700, 0.3900, 0.4100, 0.3400, 0.2800, 0.2700, 0.3100, 0.2600, 0.2400, 0.2600, 0.2300, 0.2600, 0.2300, 0.2500, 0.2400, 0.2400, 0.2400, 0.2500, 0.2600, 0.2700, 0.2800, 0.2700, 0.3000, 0.3300, 0.2800, 0.3800, 0.5000, 0.6900, 0.8200, 1.0000, 0.9500, 0.8500, 0.8600, 0.7900, 0.7700, 0.7600, 0.7600, 0.7200, 0.7700, 0.7300, 0.6600, 0.6500, 0.6000, 0.5800, 0.5600, 0.5300, 0.5000, 0.4600, 0.4600, 0.3800, 0.3700, 0.3500, 0.3200, 0.1700, 0.1600, 0.1700, 0.1500, 0.1700, 0.1600, 0.1500, 0.1800, 0.1600, 0.1500, 0.1700, 0.1400, 0.1500, 0.1600, 0.1400, 0.1700, 0.1900, 0.1900, 0.1700, 0.1800, 0.1400, 0.1900, 0.1500, 0.1700, 0.1700, 0.1700, 0.1200, 0.1400, 0.1500, 0.1500, 0.1900, 0.1100, 0.2100, 0.1800, 0.1400, 0.1400, 0.2700, 0.2200, 0.2000, 0.3700, 0.2100, 0.4100, 0.2500, 0.3500, 0.3000, 0.3000, 0.3100, 0.1800, 0.2400, 0.2300, 0.1600, 0.1600, 0.1900, 0.2100, 0.3800, 0.2300, 0.3000, 0.2200, 0.1900, 0.2000, 0.2300, 0.3200, 0.2300, 0.1700, 0.1700, 0.1600, 0.1800, 0.3000, 0.3500, 0.3400, 0.7000, 0.9500, 0.7800, 0.5600, 0.7300, 0.6900, 1.0000, 0.8100, 0.7700, 0.8100, 0.7200, 0.7700, 0.7600, 0.6800, 0.5100, 0.6200, 0.8500, 0.6400, 0.5100, 0.4700, 0.4300, 0.4300, 0.2700, 0.2100, 0.1800, 0.2000)

 
New LoadShape.continuo_3 Npts=576 minterval=15 
~ Mult=(0.2900, 0.2600, 0.2400, 0.2200, 0.2000, 0.2000, 0.1800, 0.1700, 0.1700, 0.1700, 0.1700, 0.1700, 0.1600, 0.1600, 0.1600, 0.1600, 0.1600, 0.1500, 0.1500, 0.1500, 0.2000, 0.2500, 0.3800, 0.4900, 0.2600, 0.2600, 0.2400, 0.2400, 0.2100, 0.2400, 0.1900, 0.1900, 0.2300, 0.2400, 0.2100, 0.2300, 0.2600, 0.2300, 0.2400, 0.2800, 0.2500, 0.2500, 0.2300, 0.2700, 0.3900, 0.4100, 0.3400, 0.2800, 0.2700, 0.3100, 0.2600, 0.2400, 0.2600, 0.2300, 0.2600, 0.2300, 0.2500, 0.2400, 0.2400, 0.2400, 0.2500, 0.2600, 0.2700, 0.2800, 0.2700, 0.3000, 0.3300, 0.2800, 0.3800, 0.5000, 0.6900, 0.8200, 1.0000, 0.9500, 0.8500, 0.8600, 0.7900, 0.7700, 0.7600, 0.7600, 0.7200, 0.7700, 0.7300, 0.6600, 0.6500, 0.6000, 0.5800, 0.5600, 0.5300, 0.5000, 0.4600, 0.4600, 0.3800, 0.3700, 0.3500, 0.3200, 0.3600, 0.3200, 0.3000, 0.2800, 0.2600, 0.2500, 0.2500, 0.2300, 0.2300, 0.2200, 0.2100, 0.2100, 0.2200, 0.2100, 0.2100, 0.2000, 0.1900, 0.2100, 0.2200, 0.2100, 0.2400, 0.2700, 0.3900, 0.6100, 0.5800, 0.6800, 0.4000, 0.3100, 0.3400, 0.4600, 0.4800, 0.3300, 0.2500, 0.2500, 0.2400, 0.2700, 0.2800, 0.2700, 0.3200, 0.2700, 0.2500, 0.2900, 0.3200, 0.3600, 0.4400, 0.4300, 0.4000, 0.4500, 0.3800, 0.4400, 0.4000, 0.3400, 0.3300, 0.3600, 0.4100, 0.3700, 0.3700, 0.3600, 0.3900, 0.3700, 0.3500, 0.3400, 0.3700, 0.3200, 0.3600, 0.3900, 0.4000, 0.4500, 0.5000, 0.4400, 0.5500, 0.7700, 0.7600, 0.8400, 0.8900, 0.9600, 1.0000, 0.9600, 0.9400, 0.8600, 0.8300, 0.7900, 0.7800, 0.7200, 0.6900, 0.6900, 0.7000, 0.6700, 0.6200, 0.6600, 0.5900, 0.5300, 0.4600, 0.4500, 0.4500, 0.4100, 0.3975, 0.4174, 0.4052, 0.4888, 0.4017, 0.4020, 0.3378, 0.3868, 0.3642, 0.3368, 0.3281, 0.3653, 0.3341, 0.3115, 0.3009, 0.2907, 0.3186, 0.2986, 0.2669, 0.2753, 0.3048, 0.2904, 0.2851, 0.2908, 0.3404, 0.3396, 0.2990, 0.2828, 0.2932, 0.2950, 0.2968, 0.3016, 0.2610, 0.2556, 0.2704, 0.2479, 0.2994, 0.3173, 0.2651, 0.2675, 0.2909, 0.2890, 0.2865, 0.3062, 0.2941, 0.2712, 0.2896, 0.3729, 0.3563, 0.4753, 0.4800, 0.5000, 0.5600, 0.6112, 0.6500, 0.7000, 0.7800, 0.7400, 0.6186, 0.5744, 0.5469, 0.4749, 0.4516, 0.4251, 0.3940, 0.4636, 0.4912, 0.3823, 0.3688, 0.4030, 0.6917, 0.7000, 0.7200, 0.7500, 0.8000, 1.0000, 0.8704, 0.8000, 0.7900, 0.7813, 0.7500, 0.7100, 0.6938, 0.6367, 0.5629, 0.5787, 0.5500, 0.5200, 0.5050, 0.4700, 0.4889, 0.5743, 0.6715, 0.5828, 0.5687, 0.5300, 0.3482, 0.3535, 0.3300, 0.3107, 0.3305, 0.3572, 0.2948, 0.2730, 0.2564, 0.2815, 0.2609, 0.2355, 0.2521, 0.2289, 0.2535, 0.2371, 0.2673, 0.2787, 0.2542, 0.2456, 0.2233, 0.2368, 0.2403, 0.2555, 0.2502, 0.2313, 0.2503, 0.2537, 0.2536, 0.2606, 0.3297, 0.3500, 0.5362, 0.5200, 0.5400, 0.5142, 0.5300, 0.5400, 0.5600, 0.5847, 0.5900, 0.6024, 0.3653, 0.3470, 0.3784, 0.4293, 0.4538, 0.6142, 0.7335, 0.9473, 0.5149, 0.5337, 0.5299, 0.4493, 0.4290, 0.4595, 0.5191, 0.4922, 0.5099, 0.5000, 0.5039, 0.5283, 0.5590, 0.5860, 0.5870, 0.5880, 0.5969, 0.5900, 0.5866, 0.6300, 1.0000, 0.9000, 0.8609, 0.8000, 0.8200, 0.8400, 0.8572, 0.7844, 0.7690, 0.8348, 0.8000, 0.7889, 0.7700, 0.7680, 0.7647, 0.6670, 0.6621, 0.6489, 0.6214, 0.5732, 0.5680, 0.5625, 0.5024, 0.4490, 0.4233, 0.4440, 0.4400, 0.4000, 0.4000, 0.3800, 0.3700, 0.3500, 0.3800, 0.3400, 0.3400, 0.3300, 0.3400, 0.3400, 0.3200, 0.3300, 0.3400, 0.3400, 0.3200, 0.3100, 0.3300, 0.3300, 0.3400, 0.3200, 0.3300, 0.3500, 0.3700, 0.3400, 0.3600, 0.3800, 0.5300, 0.5000, 0.4100, 0.3500, 0.4000, 0.4500, 0.4400, 0.4300, 0.4400, 0.4100, 0.4400, 0.4200, 0.4100, 0.4300, 0.3700, 0.3800, 0.3700, 0.4100, 0.3700, 0.4100, 0.4800, 0.4700, 0.4500, 0.4500, 0.4300, 0.5000, 0.4400, 0.3700, 0.3700, 0.3900, 0.4100, 0.4400, 0.4200, 0.4400, 0.4500, 0.4600, 0.5800, 0.4800, 0.5000, 0.5500, 0.4700, 0.6000, 0.7900, 0.8800, 0.9100, 0.9700, 1.0000, 0.9500, 0.9800, 0.9800, 0.9000, 0.9400, 0.9600, 0.8700, 0.7800, 0.7600, 0.7700, 0.6900, 0.7200, 0.8000, 0.7400, 0.7600, 0.8300, 0.6400, 0.6700, 0.6000, 0.5600, 0.5000, 0.1700, 0.1600, 0.1700, 0.1500, 0.1700, 0.1600, 0.1500, 0.1800, 0.1600, 0.1500, 0.1700, 0.1400, 0.1500, 0.1600, 0.1400, 0.1700, 0.1900, 0.1900, 0.1700, 0.1800, 0.1400, 0.1900, 0.1500, 0.1700, 0.1700, 0.1700, 0.1200, 0.1400, 0.1500, 0.1500, 0.1900, 0.1100, 0.2100, 0.1800, 0.1400, 0.1400, 0.2700, 0.2200, 0.2000, 0.3700, 0.2100, 0.4100, 0.2500, 0.3500, 0.3000, 0.3000, 0.3100, 0.1800, 0.2400, 0.2300, 0.1600, 0.1600, 0.1900, 0.2100, 0.3800, 0.2300, 0.3000, 0.2200, 0.1900, 0.2000, 0.2300, 0.3200, 0.2300, 0.1700, 0.1700, 0.1600, 0.1800, 0.3000, 0.3500, 0.3400, 0.7000, 0.9500, 0.7800, 0.5600, 0.7300, 0.6900, 1.0000, 0.8100, 0.7700, 0.8100, 0.7200, 0.7700, 0.7600, 0.6800, 0.5100, 0.6200, 0.8500, 0.6400, 0.5100, 0.4700, 0.4300, 0.4300, 0.2700, 0.2100, 0.1800, 0.2000)

