

New LoadShape.Ls_0 Npts=576 minterval=15
~ Mult=(0.2000, 0.2000, 0.2000, 0.2000, 0.2000, 0.2000, 0.2000, 0.2000, 0.2000, 0.2000, 0.2000, 0.2000, 0.2000, 0.2000, 0.2000, 0.2000, 0.2000, 0.2000, 0.2000, 0.2000, 0.2000, 0.2000, 0.2000, 0.2000, 0.2000, 0.2000, 0.2000, 0.2000, 0.2000, 0.2000, 0.2000, 0.2000, 0.2000, 0.2000, 0.2000, 0.2000, 0.2000, 0.2000, 0.2000, 0.2000, 0.2000, 0.2000, 0.2000, 0.2000, 0.2000, 0.2000, 0.2000, 0.2000, 0.2000, 0.2000, 0.2000, 0.2000, 0.2000, 0.2000, 0.2000, 0.2000, 0.2000, 0.2000, 0.2000, 0.2000, 0.2000, 0.2000, 0.2000, 0.2000, 0.2000, 0.2000, 0.2000, 0.2000, 0.2000, 0.2000, 0.2000, 0.2000, 0.2000, 0.2000, 0.2000, 0.2000, 0.2000, 0.2000, 0.2000, 0.2000, 0.2000, 0.2000, 0.2000, 0.2000, 0.2000, 0.2000, 0.2000, 0.2000, 0.2000, 0.2000, 0.2000, 0.2000, 0.2000, 0.2000, 0.2000, 0.2000, 0.2000, 0.2000, 0.2000, 0.2000, 0.2000, 0.2000, 0.2000, 0.2000, 0.2000, 0.2000, 0.2000, 0.2000, 0.2000, 0.2000, 0.2000, 0.2000, 0.2000, 0.2000, 0.2000, 0.2000, 0.2000, 0.2000, 0.2000, 0.2000, 0.2000, 0.2000, 0.2000, 0.2000, 0.2000, 0.2000, 0.2000, 0.2000, 0.2000, 0.2000, 0.2000, 0.2000, 0.2000, 0.2000, 0.2000, 0.2000, 0.2000, 0.2000, 0.2000, 0.2000, 0.2000, 0.2000, 0.2000, 0.2000, 0.2000, 0.2000, 0.2000, 0.2000, 0.2000, 0.2000, 0.2000, 0.2000, 0.2000, 0.2000, 0.2000, 0.2000, 0.2000, 0.2000, 0.2000, 0.2000, 0.2000, 0.2000, 0.2000, 0.2000, 0.2000, 0.2000, 0.2000, 0.2000, 0.2000, 0.2000, 0.2000, 0.2000, 0.2000, 0.2000, 0.2000, 0.2000, 0.2000, 0.2000, 0.2000, 0.2000, 0.2000, 0.2000, 0.2000, 0.2000, 0.2000, 0.2000, 0.2000, 0.2000, 0.2000, 0.2000, 0.2000, 0.2000, 0.519338784, 0.516268765, 0.501139217, 0.442212341, 0.43, 0.429955026, 0.425, 0.423671236, 0.43, 0.435158044, 0.43884117, 0.476395407, 0.462167475, 0.430338042, 0.410047005, 0.380841381, 0.393393539, 0.507004041, 0.422049963, 0.406668647, 0.41, 0.418511146, 0.415361918, 0.437756781, 0.453330754, 0.428919326, 0.413105799, 0.42, 0.551446645, 0.407580596, 0.37, 0.351009326, 0.378958161, 0.384568891, 0.362454468, 0.38, 0.439635253, 0.44, 0.442596857, 0.470659697, 0.444500856, 0.498513889, 0.615602339, 0.572308832, 0.462405477, 0.397761633, 0.421071925, 0.407843459, 0.663714415, 0.744873858, 0.489715308, 0.56646817, 0.57, 0.58, 0.585310625, 0.604206846, 0.52, 0.513382377, 0.520906506, 0.638482627, 0.639, 0.65, 0.7, 0.73, 0.75, 0.799516915, 0.64840943, 0.53321807, 0.450554794, 0.471799917, 0.64635212, 0.66, 0.687549148, 0.789413202, 0.989444162, 1, 0.99128351, 0.898314715, 0.893, 0.892153283, 0.734555316, 0.68636278, 0.817300803, 0.82, 0.84, 0.856817805, 0.976022954, 0.8, 0.737790241, 0.7, 0.695156295, 0.588033369, 0.555171209, 0.539692771, 0.52, 0.512136892, 0.301368671, 0.363430984, 0.35, 0.34464979, 0.33, 0.349273225, 0.318537072, 0.33, 0.350328191, 0.330041901, 0.35, 0.385702848, 0.403621702, 0.41, 0.405002208, 0.360026745, 0.332697309, 0.335864405, 0.351558697, 0.35, 0.35572293, 0.332210935, 0.330553912, 0.303499877, 0.230937499, 0.218534481, 0.239328256, 0.22, 0.223511154, 0.198675653, 0.231982359, 0.260529414, 0.37, 0.43, 0.55, 0.62, 0.606866846, 0.6, 0.602740942, 0.589057006, 0.545402382, 0.534615408, 0.596944956, 0.659091825, 0.627343175, 0.62543661, 0.683184405, 0.69540016, 0.711660672, 0.698218601, 0.691288216, 0.653862497, 0.668653268, 0.655096211, 0.662446304, 0.679489411, 0.744359705, 0.712420153, 0.760946278, 0.844949582, 0.802213611, 0.816241529, 0.803134267, 0.71226978, 0.731900519, 0.905550686, 0.92, 0.95, 0.98, 1, 0.846725864, 0.851808261, 0.846675826, 0.852232033, 0.86, 0.88, 0.890732446, 0.804181841, 0.76547235, 0.742181599, 0.773844735, 0.75123571, 0.749625891, 0.84653552, 0.783206192, 0.8, 0.814040506, 0.84311542, 0.835179112, 0.829589332, 0.85, 0.78673942, 0.810497204, 0.763731678, 0.70714783, 0.740014606, 0.20000, 0.20000, 0.20000, 0.20000, 0.20000, 0.20000, 0.20000, 0.20000, 0.20000, 0.20000, 0.20000, 0.20000, 0.20000, 0.20000, 0.20000, 0.20000, 0.20000, 0.20000, 0.20000, 0.20000, 0.20000, 0.20000, 0.20000, 0.20000, 0.20000, 0.20000, 0.20000, 0.20000, 0.20000, 0.20000, 0.20000, 0.20000, 0.20000, 0.20000, 0.20000, 0.20000, 0.20000, 0.20000, 0.20000, 0.20000, 0.20000, 0.20000, 0.20000, 0.20000, 0.20000, 0.20000, 0.20000, 0.20000, 0.20000, 0.20000, 0.20000, 0.20000, 0.20000, 0.20000, 0.20000, 0.20000, 0.20000, 0.20000, 0.20000, 0.20000, 0.20000, 0.20000, 0.20000, 0.20000, 0.20000, 0.20000, 0.20000, 0.20000, 0.20000, 0.20000, 0.20000, 0.20000, 0.20000, 0.20000, 0.20000, 0.20000, 0.20000, 0.20000, 0.20000, 0.20000, 0.20000, 0.20000, 0.20000, 0.20000, 0.20000, 0.20000, 0.20000, 0.20000, 0.20000, 0.20000, 0.20000, 0.20000, 0.20000, 0.20000, 0.20000, 0.20000, 0.20000, 0.20000, 0.20000, 0.20000, 0.20000, 0.20000, 0.20000, 0.20000, 0.20000, 0.20000, 0.20000, 0.20000, 0.20000, 0.20000, 0.20000, 0.20000, 0.20000, 0.20000, 0.20000, 0.20000, 0.20000, 0.20000, 0.20000, 0.20000, 0.20000, 0.20000, 0.20000, 0.20000, 0.20000, 0.20000, 0.20000, 0.20000, 0.20000, 0.20000, 0.20000, 0.20000, 0.20000, 0.20000, 0.20000, 0.20000, 0.20000, 0.20000, 0.20000, 0.20000, 0.20000, 0.20000, 0.20000, 0.20000, 0.20000, 0.20000, 0.20000, 0.20000, 0.20000, 0.20000, 0.20000, 0.20000, 0.20000, 0.20000, 0.20000, 0.20000, 0.20000, 0.20000, 0.20000, 0.20000, 0.20000, 0.20000, 0.20000, 0.20000, 0.20000, 0.20000, 0.20000, 0.20000, 0.20000, 0.20000, 0.20000, 0.20000, 0.20000, 0.20000, 0.20000, 0.20000, 0.20000, 0.20000, 0.20000, 0.20000, 0.20000, 0.20000, 0.20000, 0.20000, 0.20000, 0.20000, 0.20000, 0.20000, 0.20000, 0.20000, 0.20000, 0.20000)


New LoadShape.Ls_1 Npts=576 minterval=15 
 ~ Mult=(0.2000, 0.2000, 0.2000, 0.2000, 0.2000, 0.2000, 0.2000, 0.2000, 0.2000, 0.2000, 0.2000, 0.2000, 0.2000, 0.2000, 0.2000, 0.2000, 0.2000, 0.2000, 0.2000, 0.2000, 0.2000, 0.2000, 0.2000, 0.2000, 0.2000, 0.2000, 0.2000, 0.2000, 0.2000, 0.2000, 0.2000, 0.2000, 0.2000, 0.2000, 0.2000, 0.2000, 0.2000, 0.2000, 0.2000, 0.2000, 0.2000, 0.2000, 0.2000, 0.2000, 0.2000, 0.2000, 0.2000, 0.2000, 0.2000, 0.2000, 0.2000, 0.2000, 0.2000, 0.2000, 0.2000, 0.2000, 0.2000, 0.2000, 0.2000, 0.2000, 0.2000, 0.2000, 0.2000, 0.2000, 0.2000, 0.2000, 0.2000, 0.2000, 0.2000, 0.2000, 0.2000, 0.2000, 0.2000, 0.2000, 0.2000, 0.2000, 0.2000, 0.2000, 0.2000, 0.2000, 0.2000, 0.2000, 0.2000, 0.2000, 0.2000, 0.2000, 0.2000, 0.2000, 0.2000, 0.2000, 0.2000, 0.2000, 0.2000, 0.2000, 0.2000, 0.2000, 0.2000, 0.2000, 0.2000, 0.2000, 0.2000, 0.2000, 0.2000, 0.2000, 0.2000, 0.2000, 0.2000, 0.2000, 0.2000, 0.2000, 0.2000, 0.2000, 0.2000, 0.2000, 0.2000, 0.2000, 0.2000, 0.2000, 0.2000, 0.2000, 0.2000, 0.2000, 0.2000, 0.2000, 0.2000, 0.2000, 0.2000, 0.2000, 0.2000, 0.2000, 0.2000, 0.2000, 0.2000, 0.2000, 0.2000, 0.2000, 0.2000, 0.2000, 0.2000, 0.2000, 0.2000, 0.2000, 0.2000, 0.2000, 0.2000, 0.2000, 0.2000, 0.2000, 0.2000, 0.2000, 0.2000, 0.2000, 0.2000, 0.2000, 0.2000, 0.2000, 0.2000, 0.2000, 0.2000, 0.2000, 0.2000, 0.2000, 0.2000, 0.2000, 0.2000, 0.2000, 0.2000, 0.2000, 0.2000, 0.2000, 0.2000, 0.2000, 0.2000, 0.2000, 0.2000, 0.2000, 0.2000, 0.2000, 0.2000, 0.2000, 0.2000, 0.2000, 0.2000, 0.2000, 0.2000, 0.2000, 0.2000, 0.2000, 0.2000, 0.2000, 0.2000, 0.2000, 0.400789905, 0.356167138, 0.360435513, 0.386554733, 0.311407117, 0.292257542, 0.274726258, 0.26, 0.252200678, 0.227300889, 0.261802851, 0.252591072, 0.245003837, 0.284904858, 0.245129961, 0.230108143, 0.263061649, 0.25037252, 0.274191254, 0.251802655, 0.221702721, 0.223056906, 0.258732768, 0.244805634, 0.243389303, 0.251521206, 0.26, 0.281102589, 0.267222354, 0.326783862, 0.405780349, 0.358396256, 0.31543225, 0.333632102, 0.34634691, 0.35, 0.365424702, 0.41, 0.4105, 0.41063196, 0.401174996, 0.377484468, 0.401153035, 0.719236579, 0.75, 0.834858857, 0.715855895, 0.393134924, 0.398453858, 0.436380292, 0.451448199, 0.509931547, 0.862255152, 0.75, 0.626081521, 0.545406202, 0.53, 0.517607288, 0.488747151, 0.487526223, 0.68034377, 0.535757126, 0.546894885, 0.451570106, 0.421203685, 0.645613022, 0.6, 0.595876479, 0.59, 0.58743434, 0.695673616, 1, 0.935955139, 0.82618504, 0.826, 0.826597991, 0.8, 0.853717334, 0.87, 0.9208822, 0.74137564, 0.609345406, 0.55, 0.531345417, 0.528352036, 0.51, 0.509262103, 0.5, 0.495926701, 0.48215184, 0.458423416, 0.587774164, 0.765371779, 0.68, 0.462324886, 0.466473762, 0.596460918, 0.5959089, 0.551432911, 0.53, 0.49853213, 0.506834026, 0.501323461, 0.443694606, 0.40375662, 0.40307738, 0.398334165, 0.390852362, 0.395767982, 0.380057498, 0.361328387, 0.359539359, 0.34, 0.32, 0.317263218, 0.314190782, 0.34779712, 0.334724721, 0.367262101, 0.360131818, 0.36, 0.361891939, 0.341441646, 0.338809027, 0.32, 0.318783974, 0.342090468, 0.367554008, 0.383792711, 0.39, 0.404834564, 0.386443367, 0.362355556, 0.381822802, 0.355940124, 0.388281533, 0.446808719, 0.45766437, 0.434574877, 0.46554151, 0.457221969, 0.485868552, 0.492748323, 0.510628825, 0.469474051, 0.463423391, 0.539477487, 0.63917976, 0.685555514, 0.518856799, 0.570864058, 0.609665545, 0.700379062, 0.801682822, 0.676297156, 0.610240674, 0.550357958, 0.541600297, 0.534485859, 0.501060749, 0.521093933, 0.510894205, 0.516084043, 0.504551329, 0.53161321, 0.54, 0.55168538, 0.585362147, 0.59, 0.613559986, 0.62, 0.630829743, 0.611842873, 0.63, 0.642357931, 0.601610247, 0.667625195, 0.559774063, 0.645076318, 0.980615885, 1, 0.93, 0.87, 0.85, 0.822973441, 0.620296865, 0.612515988, 0.6, 0.669973818, 0.69685639, 0.543790439, 0.504376005, 0.20000, 0.20000, 0.20000, 0.20000, 0.20000, 0.20000, 0.20000, 0.20000, 0.20000, 0.20000, 0.20000, 0.20000, 0.20000, 0.20000, 0.20000, 0.20000, 0.20000, 0.20000, 0.20000, 0.20000, 0.20000, 0.20000, 0.20000, 0.20000, 0.20000, 0.20000, 0.20000, 0.20000, 0.20000, 0.20000, 0.20000, 0.20000, 0.20000, 0.20000, 0.20000, 0.20000, 0.20000, 0.20000, 0.20000, 0.20000, 0.20000, 0.20000, 0.20000, 0.20000, 0.20000, 0.20000, 0.20000, 0.20000, 0.20000, 0.20000, 0.20000, 0.20000, 0.20000, 0.20000, 0.20000, 0.20000, 0.20000, 0.20000, 0.20000, 0.20000, 0.20000, 0.20000, 0.20000, 0.20000, 0.20000, 0.20000, 0.20000, 0.20000, 0.20000, 0.20000, 0.20000, 0.20000, 0.20000, 0.20000, 0.20000, 0.20000, 0.20000, 0.20000, 0.20000, 0.20000, 0.20000, 0.20000, 0.20000, 0.20000, 0.20000, 0.20000, 0.20000, 0.20000, 0.20000, 0.20000, 0.20000, 0.20000, 0.20000, 0.20000, 0.20000, 0.20000, 0.20000, 0.20000, 0.20000, 0.20000, 0.20000, 0.20000, 0.20000, 0.20000, 0.20000, 0.20000, 0.20000, 0.20000, 0.20000, 0.20000, 0.20000, 0.20000, 0.20000, 0.20000, 0.20000, 0.20000, 0.20000, 0.20000, 0.20000, 0.20000, 0.20000, 0.20000, 0.20000, 0.20000, 0.20000, 0.20000, 0.20000, 0.20000, 0.20000, 0.20000, 0.20000, 0.20000, 0.20000, 0.20000, 0.20000, 0.20000, 0.20000, 0.20000, 0.20000, 0.20000, 0.20000, 0.20000, 0.20000, 0.20000, 0.20000, 0.20000, 0.20000, 0.20000, 0.20000, 0.20000, 0.20000, 0.20000, 0.20000, 0.20000, 0.20000, 0.20000, 0.20000, 0.20000, 0.20000, 0.20000, 0.20000, 0.20000, 0.20000, 0.20000, 0.20000, 0.20000, 0.20000, 0.20000, 0.20000, 0.20000, 0.20000, 0.20000, 0.20000, 0.20000, 0.20000, 0.20000, 0.20000, 0.20000, 0.20000, 0.20000, 0.20000, 0.20000, 0.20000, 0.20000, 0.20000, 0.20000, 0.20000, 0.20000, 0.20000, 0.20000, 0.20000, 0.20000)

New LoadShape.Ls_2 Npts=576 minterval=15
 ~ Mult=(0.2000, 0.2000, 0.2000, 0.2000, 0.2000, 0.2000, 0.2000, 0.2000, 0.2000, 0.2000, 0.2000, 0.2000, 0.2000, 0.2000, 0.2000, 0.2000, 0.2000, 0.2000, 0.2000, 0.2000, 0.2000, 0.2000, 0.2000, 0.2000, 0.2000, 0.2000, 0.2000, 0.2000, 0.2000, 0.2000, 0.2000, 0.2000, 0.2000, 0.2000, 0.2000, 0.2000, 0.2000, 0.2000, 0.2000, 0.2000, 0.2000, 0.2000, 0.2000, 0.2000, 0.2000, 0.2000, 0.2000, 0.2000, 0.2000, 0.2000, 0.2000, 0.2000, 0.2000, 0.2000, 0.2000, 0.2000, 0.2000, 0.2000, 0.2000, 0.2000, 0.2000, 0.2000, 0.2000, 0.2000, 0.2000, 0.2000, 0.2000, 0.2000, 0.2000, 0.2000, 0.2000, 0.2000, 0.2000, 0.2000, 0.2000, 0.2000, 0.2000, 0.2000, 0.2000, 0.2000, 0.2000, 0.2000, 0.2000, 0.2000, 0.2000, 0.2000, 0.2000, 0.2000, 0.2000, 0.2000, 0.2000, 0.2000, 0.2000, 0.2000, 0.2000, 0.2000, 0.2000, 0.2000, 0.2000, 0.2000, 0.2000, 0.2000, 0.2000, 0.2000, 0.2000, 0.2000, 0.2000, 0.2000, 0.2000, 0.2000, 0.2000, 0.2000, 0.2000, 0.2000, 0.2000, 0.2000, 0.2000, 0.2000, 0.2000, 0.2000, 0.2000, 0.2000, 0.2000, 0.2000, 0.2000, 0.2000, 0.2000, 0.2000, 0.2000, 0.2000, 0.2000, 0.2000, 0.2000, 0.2000, 0.2000, 0.2000, 0.2000, 0.2000, 0.2000, 0.2000, 0.2000, 0.2000, 0.2000, 0.2000, 0.2000, 0.2000, 0.2000, 0.2000, 0.2000, 0.2000, 0.2000, 0.2000, 0.2000, 0.2000, 0.2000, 0.2000, 0.2000, 0.2000, 0.2000, 0.2000, 0.2000, 0.2000, 0.2000, 0.2000, 0.2000, 0.2000, 0.2000, 0.2000, 0.2000, 0.2000, 0.2000, 0.2000, 0.2000, 0.2000, 0.2000, 0.2000, 0.2000, 0.2000, 0.2000, 0.2000, 0.2000, 0.2000, 0.2000, 0.2000, 0.2000, 0.2000, 0.2000, 0.2000, 0.2000, 0.2000, 0.2000, 0.2000, 0.377470484, 0.396446938, 0.403176315, 0.394023509, 0.380934706, 0.381616539, 0.383780633, 0.359587982, 0.364072004, 0.347913402, 0.315679936, 0.3365879, 0.32921686, 0.305191264, 0.343937105, 0.315232771, 0.252601213, 0.287839819, 0.325118679, 0.279087178, 0.273804801, 0.295893432, 0.300967679, 0.262034044, 0.433723897, 0.387907115, 0.266332267, 0.313261557, 0.290754297, 0.276673004, 0.286526592, 0.566341066, 0.55, 0.516933079, 0.41534237, 0.3652489, 0.328956225, 0.347200354, 0.345, 0.349008616, 0.364643149, 0.38, 0.4199591, 0.425498963, 0.483687672, 0.445800435, 0.45, 0.457553954, 0.54452974, 0.432445102, 0.419605036, 0.454245356, 0.486733924, 0.410725077, 0.386992107, 0.37, 0.367977106, 0.363567107, 0.408293741, 0.409944299, 0.448127703, 0.434912475, 0.408552652, 0.537987801, 0.669687008, 0.542502434, 0.532144714, 0.54, 0.558189818, 0.55, 0.555997436, 0.60211855, 0.585, 0.577653793, 0.630690778, 0.64, 0.652510039, 0.698065272, 0.73, 0.766242989, 0.778574375, 1, 0.93, 0.85, 0.594658325, 0.536496245, 0.568677463, 0.776873159, 0.78, 0.8, 0.838520441, 0.542146683, 0.538302828, 0.492520542, 0.460422116, 0.533161527, 0.278409609, 0.3, 0.332492623, 0.329548922, 0.342118504, 0.324538844, 0.317838465, 0.275730029, 0.264910917, 0.264406165, 0.268401594, 0.24961355, 0.288931276, 0.479380542, 0.43, 0.4, 0.36, 0.340966537, 0.280656544, 0.261118836, 0.230175562, 0.267186065, 0.243977647, 0.214487097, 0.192229919, 0.314825017, 0.32, 0.325, 0.33, 0.36, 0.375, 0.385, 0.4, 0.43, 0.45, 0.253618527, 0.228383773, 0.248348212, 0.235952187, 0.245649936, 0.216967821, 0.358170754, 0.36, 0.374912018, 0.39, 0.42, 0.445, 0.46, 0.469580578, 0.412661467, 0.42, 0.43, 0.45, 0.474067286, 0.4, 0.41, 0.405, 0.42, 0.45, 0.48727568, 0.484671968, 0.5, 0.58, 0.63, 0.55, 0.57, 0.63, 0.68, 0.7, 0.752320483, 0.613962831, 0.552189827, 0.532783071, 0.553543295, 0.539588406, 0.798131612, 0.77, 0.759286263, 0.977142442, 0.95, 0.885955466, 1, 0.543394116, 0.559353856, 0.548396916, 0.505787173, 0.477861774, 0.5, 0.398507784, 0.368856436, 0.376178988, 0.463168256, 0.414626578, 0.35195349, 0.36084861, 0.429048977, 0.20000, 0.20000, 0.20000, 0.20000, 0.20000, 0.20000, 0.20000, 0.20000, 0.20000, 0.20000, 0.20000, 0.20000, 0.20000, 0.20000, 0.20000, 0.20000, 0.20000, 0.20000, 0.20000, 0.20000, 0.20000, 0.20000, 0.20000, 0.20000, 0.20000, 0.20000, 0.20000, 0.20000, 0.20000, 0.20000, 0.20000, 0.20000, 0.20000, 0.20000, 0.20000, 0.20000, 0.20000, 0.20000, 0.20000, 0.20000, 0.20000, 0.20000, 0.20000, 0.20000, 0.20000, 0.20000, 0.20000, 0.20000, 0.20000, 0.20000, 0.20000, 0.20000, 0.20000, 0.20000, 0.20000, 0.20000, 0.20000, 0.20000, 0.20000, 0.20000, 0.20000, 0.20000, 0.20000, 0.20000, 0.20000, 0.20000, 0.20000, 0.20000, 0.20000, 0.20000, 0.20000, 0.20000, 0.20000, 0.20000, 0.20000, 0.20000, 0.20000, 0.20000, 0.20000, 0.20000, 0.20000, 0.20000, 0.20000, 0.20000, 0.20000, 0.20000, 0.20000, 0.20000, 0.20000, 0.20000, 0.20000, 0.20000, 0.20000, 0.20000, 0.20000, 0.20000, 0.20000, 0.20000, 0.20000, 0.20000, 0.20000, 0.20000, 0.20000, 0.20000, 0.20000, 0.20000, 0.20000, 0.20000, 0.20000, 0.20000, 0.20000, 0.20000, 0.20000, 0.20000, 0.20000, 0.20000, 0.20000, 0.20000, 0.20000, 0.20000, 0.20000, 0.20000, 0.20000, 0.20000, 0.20000, 0.20000, 0.20000, 0.20000, 0.20000, 0.20000, 0.20000, 0.20000, 0.20000, 0.20000, 0.20000, 0.20000, 0.20000, 0.20000, 0.20000, 0.20000, 0.20000, 0.20000, 0.20000, 0.20000, 0.20000, 0.20000, 0.20000, 0.20000, 0.20000, 0.20000, 0.20000, 0.20000, 0.20000, 0.20000, 0.20000, 0.20000, 0.20000, 0.20000, 0.20000, 0.20000, 0.20000, 0.20000, 0.20000, 0.20000, 0.20000, 0.20000, 0.20000, 0.20000, 0.20000, 0.20000, 0.20000, 0.20000, 0.20000, 0.20000, 0.20000, 0.20000, 0.20000, 0.20000, 0.20000, 0.20000, 0.20000, 0.20000, 0.20000, 0.20000, 0.20000, 0.20000, 0.20000, 0.20000, 0.20000, 0.20000, 0.20000, 0.20000)

 
New LoadShape.Ls_3 Npts=576 minterval=15 
~ Mult=(0.2000, 0.2000, 0.2000, 0.2000, 0.2000, 0.2000, 0.2000, 0.2000, 0.2000, 0.2000, 0.2000, 0.2000, 0.2000, 0.2000, 0.2000, 0.2000, 0.2000, 0.2000, 0.2000, 0.2000, 0.2000, 0.2000, 0.2000, 0.2000, 0.2000, 0.2000, 0.2000, 0.2000, 0.2000, 0.2000, 0.2000, 0.2000, 0.2000, 0.2000, 0.2000, 0.2000, 0.2000, 0.2000, 0.2000, 0.2000, 0.2000, 0.2000, 0.2000, 0.2000, 0.2000, 0.2000, 0.2000, 0.2000, 0.2000, 0.2000, 0.2000, 0.2000, 0.2000, 0.2000, 0.2000, 0.2000, 0.2000, 0.2000, 0.2000, 0.2000, 0.2000, 0.2000, 0.2000, 0.2000, 0.2000, 0.2000, 0.2000, 0.2000, 0.2000, 0.2000, 0.2000, 0.2000, 0.2000, 0.2000, 0.2000, 0.2000, 0.2000, 0.2000, 0.2000, 0.2000, 0.2000, 0.2000, 0.2000, 0.2000, 0.2000, 0.2000, 0.2000, 0.2000, 0.2000, 0.2000, 0.2000, 0.2000, 0.2000, 0.2000, 0.2000, 0.2000, 0.2000, 0.2000, 0.2000, 0.2000, 0.2000, 0.2000, 0.2000, 0.2000, 0.2000, 0.2000, 0.2000, 0.2000, 0.2000, 0.2000, 0.2000, 0.2000, 0.2000, 0.2000, 0.2000, 0.2000, 0.2000, 0.2000, 0.2000, 0.2000, 0.2000, 0.2000, 0.2000, 0.2000, 0.2000, 0.2000, 0.2000, 0.2000, 0.2000, 0.2000, 0.2000, 0.2000, 0.2000, 0.2000, 0.2000, 0.2000, 0.2000, 0.2000, 0.2000, 0.2000, 0.2000, 0.2000, 0.2000, 0.2000, 0.2000, 0.2000, 0.2000, 0.2000, 0.2000, 0.2000, 0.2000, 0.2000, 0.2000, 0.2000, 0.2000, 0.2000, 0.2000, 0.2000, 0.2000, 0.2000, 0.2000, 0.2000, 0.2000, 0.2000, 0.2000, 0.2000, 0.2000, 0.2000, 0.2000, 0.2000, 0.2000, 0.2000, 0.2000, 0.2000, 0.2000, 0.2000, 0.2000, 0.2000, 0.2000, 0.2000, 0.2000, 0.2000, 0.2000, 0.2000, 0.2000, 0.2000, 0.2000, 0.2000, 0.2000, 0.2000, 0.2000, 0.2000, 0.397502067, 0.417405264, 0.405198826, 0.488764535, 0.401686275, 0.401989452, 0.33781587, 0.386813468, 0.364150415, 0.336778431, 0.328064845, 0.365293145, 0.334110805, 0.311531291, 0.300873038, 0.290678671, 0.318646352, 0.298575551, 0.266902408, 0.275277692, 0.304818643, 0.290437512, 0.285051896, 0.290769178, 0.340423561, 0.339598922, 0.298968992, 0.282846396, 0.293247537, 0.295, 0.296800777, 0.301590198, 0.261005007, 0.25563244, 0.270448685, 0.247857128, 0.299397174, 0.317288361, 0.265145039, 0.267503573, 0.290939779, 0.288992208, 0.286541716, 0.306227305, 0.294143491, 0.271184476, 0.289617216, 0.372856128, 0.356302131, 0.475316141, 0.48, 0.5, 0.56, 0.611243304, 0.65, 0.7, 0.78, 0.74, 0.618618826, 0.574418644, 0.546916563, 0.474908534, 0.451572165, 0.42514945, 0.39401598, 0.463560632, 0.491185608, 0.382343476, 0.368838476, 0.40298779, 0.691656755, 0.7, 0.72, 0.75, 0.8, 1, 0.870412951, 0.8, 0.79, 0.781303153, 0.75, 0.71, 0.693774506, 0.636686704, 0.562864457, 0.578662876, 0.55, 0.52, 0.505010328, 0.469961408, 0.488858107, 0.574278356, 0.671513847, 0.582758943, 0.568663616, 0.53, 0.348232695, 0.353450757, 0.33, 0.31071447, 0.330524847, 0.35721038, 0.294815359, 0.273038061, 0.256435235, 0.281524949, 0.260906807, 0.235481039, 0.252123078, 0.228899934, 0.253462345, 0.237088548, 0.267282008, 0.278700709, 0.254231258, 0.245566651, 0.223295322, 0.236803565, 0.240271382, 0.255480337, 0.250179884, 0.231267821, 0.25032701, 0.253728278, 0.253635568, 0.260590222, 0.329665222, 0.35, 0.53615826, 0.52, 0.54, 0.51419253, 0.53, 0.54, 0.56, 0.58467842, 0.59, 0.602374598, 0.365315687, 0.346952818, 0.378377549, 0.429281887, 0.453807061, 0.61417569, 0.733528956, 0.947269906, 0.514914589, 0.533722011, 0.529896806, 0.449302378, 0.428975567, 0.459497166, 0.519051333, 0.492216376, 0.509866217, 0.5, 0.503907102, 0.528270428, 0.558993591, 0.586023629, 0.587, 0.588, 0.596923023, 0.59, 0.58659281, 0.63, 1, 0.9, 0.860853944, 0.8, 0.82, 0.84, 0.857248828, 0.784393502, 0.769016047, 0.834805343, 0.8, 0.788858128, 0.77, 0.768, 0.764695818, 0.667047507, 0.662065344, 0.648913898, 0.621401074, 0.57323895, 0.568, 0.562509077, 0.502447725, 0.448999876, 0.42327895, 0.443968553, 0.20000, 0.20000, 0.20000, 0.20000, 0.20000, 0.20000, 0.20000, 0.20000, 0.20000, 0.20000, 0.20000, 0.20000, 0.20000, 0.20000, 0.20000, 0.20000, 0.20000, 0.20000, 0.20000, 0.20000, 0.20000, 0.20000, 0.20000, 0.20000, 0.20000, 0.20000, 0.20000, 0.20000, 0.20000, 0.20000, 0.20000, 0.20000, 0.20000, 0.20000, 0.20000, 0.20000, 0.20000, 0.20000, 0.20000, 0.20000, 0.20000, 0.20000, 0.20000, 0.20000, 0.20000, 0.20000, 0.20000, 0.20000, 0.20000, 0.20000, 0.20000, 0.20000, 0.20000, 0.20000, 0.20000, 0.20000, 0.20000, 0.20000, 0.20000, 0.20000, 0.20000, 0.20000, 0.20000, 0.20000, 0.20000, 0.20000, 0.20000, 0.20000, 0.20000, 0.20000, 0.20000, 0.20000, 0.20000, 0.20000, 0.20000, 0.20000, 0.20000, 0.20000, 0.20000, 0.20000, 0.20000, 0.20000, 0.20000, 0.20000, 0.20000, 0.20000, 0.20000, 0.20000, 0.20000, 0.20000, 0.20000, 0.20000, 0.20000, 0.20000, 0.20000, 0.20000, 0.20000, 0.20000, 0.20000, 0.20000, 0.20000, 0.20000, 0.20000, 0.20000, 0.20000, 0.20000, 0.20000, 0.20000, 0.20000, 0.20000, 0.20000, 0.20000, 0.20000, 0.20000, 0.20000, 0.20000, 0.20000, 0.20000, 0.20000, 0.20000, 0.20000, 0.20000, 0.20000, 0.20000, 0.20000, 0.20000, 0.20000, 0.20000, 0.20000, 0.20000, 0.20000, 0.20000, 0.20000, 0.20000, 0.20000, 0.20000, 0.20000, 0.20000, 0.20000, 0.20000, 0.20000, 0.20000, 0.20000, 0.20000, 0.20000, 0.20000, 0.20000, 0.20000, 0.20000, 0.20000, 0.20000, 0.20000, 0.20000, 0.20000, 0.20000, 0.20000, 0.20000, 0.20000, 0.20000, 0.20000, 0.20000, 0.20000, 0.20000, 0.20000, 0.20000, 0.20000, 0.20000, 0.20000, 0.20000, 0.20000, 0.20000, 0.20000, 0.20000, 0.20000, 0.20000, 0.20000, 0.20000, 0.20000, 0.20000, 0.20000, 0.20000, 0.20000, 0.20000, 0.20000, 0.20000, 0.20000, 0.20000, 0.20000, 0.20000, 0.20000, 0.20000, 0.20000)

