New Loadshape.MyIrrad npts=96 minterval=15 mult=[0.000000, 0.000000, 0.000000, 0.000648, 0.000000, 0.000041, 0.000000, 0.000000, 0.000000, 0.000044, 0.000000, 0.000030, 0.000044, 0.000000, 0.000000, 0.000000, 0.000045, 0.000086, 0.000000, 0.000000, 0.000074, 0.000019, 0.000000, 0.000213, 0.002970, 0.017994, 0.035231, 0.027660, 0.023096, 0.019086, 0.040050, 0.109988, 0.220075, 0.216521, 0.326405, 0.396812, 0.335267, 0.570796, 0.497509, 0.661911, 0.805226, 0.831400, 0.613972, 0.707062, 0.822875, 0.667561, 0.705650, 0.693769, 0.731092, 0.764303, 0.917538, 1.000000, 0.956330, 0.628827, 0.452451, 0.449652, 0.583467, 0.777201, 0.515685, 0.769390, 0.761144, 0.579274, 0.663362, 0.511969, 0.098780, 0.110627, 0.090900, 0.058318, 0.045869, 0.194871, 0.137381, 0.130383, 0.062235, 0.016055, 0.015124, 0.000891, 0.000000, 0.000000, 0.000000, 0.000000, 0.000000, 0.000000, 0.000000, 0.000000, 0.000000, 0.000000, 0.000000, 0.000000, 0.000000, 0.000000, 0.000000, 0.000000, 0.000000, 0.000000, 0.000000, 0.000000]

New Loadshape.MyIrrad_2 npts=288 minterval=15 mult=[0,0,0,0.000648,0,0.000041,0,0,0,0.000044,0,0.00003,0.000044,0,0,0,0.000045,0.000086,0,0,0.000074,0.000019,0,0.000213,0.00297,0.017994,0.035231,0.02766,0.023096,0.019086,0.04005,0.109988,0.220075,0.216521,0.326405,0.396812,0.335267,0.570796,0.497509,0.661911,0.805226,0.8314,0.613972,0.707062,0.822875,0.667561,0.70565,0.693769,0.731092,0.764303,0.917538,1,0.95633,0.628827,0.452451,0.449652,0.583467,0.777201,0.515685,0.76939,0.761144,0.579274,0.663362,0.511969,0.09878,0.110627,0.0909,0.058318,0.045869,0.194871,0.137381,0.130383,0.062235,0.016055,0.015124,0.000891,0,0,0,0,0,0,0,0,0,0,0,0,0,0,0,0,0,0,0,0,0,0,0,0.0005184,0,0.0000328,0,0,0,0.0000352,0,0.000024,0.0000352,0,0,0,0.000036,0.0000688,0,0,0.0000592,0.0000152,0,0.0001704,0.002376,0.0143952,0.0281848,0.022128,0.0184768,0.0152688,0.03204,0.0879904,0.17606,0.1732168,0.261124,0.3174496,0.2682136,0.4566368,0.3980072,0.5295288,0.6441808,0.66512,0.4911776,0.5656496,0.6583,0.5340488,0.56452,0.5550152,0.5848736,0.6114424,0.7340304,0.8,0.765064,0.5030616,0.3619608,0.3597216,0.4667736,0.6217608,0.412548,0.615512,0.6089152,0.4634192,0.5306896,0.4095752,0.079024,0.0885016,0.07272,0.0466544,0.0366952,0.1558968,0.1099048,0.1043064,0.049788,0.012844,0.0120992,0.0007128,0,0,0,0,0,0,0,0,0,0,0,0,0,0,0,0,0,0,0,0,0,0,0,0.0003888,0,0.0000246,0,0,0,0.0000264,0,0.000018,0.0000264,0,0,0,0.000027,0.0000516,0,0,0.0000444,0.0000114,0,0.0001278,0.001782,0.0107964,0.0211386,0.016596,0.0138576,0.0114516,0.02403,0.0659928,0.132045,0.1299126,0.195843,0.2380872,0.2011602,0.3424776,0.2985054,0.3971466,0.4831356,0.49884,0.3683832,0.4242372,0.493725,0.4005366,0.42339,0.4162614,0.4386552,0.4585818,0.5505228,0.6,0.573798,0.3772962,0.2714706,0.2697912,0.3500802,0.4663206,0.309411,0.461634,0.4566864,0.3475644,0.3980172,0.3071814,0.059268,0.0663762,0.05454,0.0349908,0.0275214,0.1169226,0.0824286,0.0782298,0.037341,0.009633,0.0090744,0.0005346,0,0,0,0,0,0,0,0,0,0,0,0,0,0,0,0,0,0,0,0]

New Loadshape.MyIrrad_3 npts=96 minterval=15 mult=[0.000000, 0.000000, 0.000000, 0.000648, 0.000000, 0.000041, 0.000000, 0.000000, 0.000000, 0.000044, 0.000000, 0.000030, 0.000044, 0.000000, 0.000000, 0.000000, 0.000045, 0.000086, 0.000000, 0.000000, 0.000074, 0.000019, 0.000000, 0.000213, 0.002970, 0.017994, 0.035231, 0.027660, 0.023096, 0.019086, 0.040050, 0.109988, 0.220075, 0.216521, 0.326405, 0.396812, 0.335267, 0.570796, 0.497509, 0.661911, 0.805226, 0.831400, 0.613972, 0.707062, 0.822875, 0.667561, 0.705650, 0.693769, 0.731092, 0.764303, 0.917538, 1.000000, 0.956330, 0.628827, 0.452451, 0.449652, 0.583467, 0.777201, 0.515685, 0.769390, 0.761144, 0.579274, 0.663362, 0.511969, 0.098780, 0.110627, 0.090900, 0.058318, 0.045869, 0.194871, 0.137381, 0.130383, 0.062235, 0.016055, 0.015124, 0.000891, 0.000000, 0.000000, 0.000000, 0.000000, 0.000000, 0.000000, 0.000000, 0.000000, 0.000000, 0.000000, 0.000000, 0.000000, 0.000000, 0.000000, 0.000000, 0.000000, 0.000000, 0.000000, 0.000000, 0.000000]

