

New LoadShape.Lfds_0 Npts=576 minterval=15
~ Mult=(0.4400, 0.4000, 0.4000, 0.3800, 0.3700, 0.3500, 0.3800, 0.3400, 0.3400, 0.3300, 0.3400, 0.3400, 0.3200, 0.3300, 0.3400, 0.3400, 0.3200, 0.3100, 0.3300, 0.3300, 0.3400, 0.3200, 0.3300, 0.3500, 0.3700, 0.3400, 0.3600, 0.3800, 0.5300, 0.5000, 0.4100, 0.3500, 0.4000, 0.4500, 0.4400, 0.4300, 0.4400, 0.4100, 0.4400, 0.4200, 0.4100, 0.4300, 0.3700, 0.3800, 0.3700, 0.4100, 0.3700, 0.4100, 0.4800, 0.4700, 0.4500, 0.4500, 0.4300, 0.5000, 0.4400, 0.3700, 0.3700, 0.3900, 0.4100, 0.4400, 0.4200, 0.4400, 0.4500, 0.4600, 0.5800, 0.4800, 0.5000, 0.5500, 0.4700, 0.6000, 0.7900, 0.8800, 0.9100, 0.9700, 1.0000, 0.9500, 0.9800, 0.9800, 0.9000, 0.9400, 0.9600, 0.8700, 0.7800, 0.7600, 0.7700, 0.6900, 0.7200, 0.8000, 0.7400, 0.7600, 0.8300, 0.6400, 0.6700, 0.6000, 0.5600, 0.5000, 0.2900, 0.2600, 0.2400, 0.2200, 0.2000, 0.2000, 0.1800, 0.1700, 0.1700, 0.1700, 0.1700, 0.1700, 0.1600, 0.1600, 0.1600, 0.1600, 0.1600, 0.1500, 0.1500, 0.1500, 0.2000, 0.2500, 0.3800, 0.4900, 0.2600, 0.2600, 0.2400, 0.2400, 0.2100, 0.2400, 0.1900, 0.1900, 0.2300, 0.2400, 0.2100, 0.2300, 0.2600, 0.2300, 0.2400, 0.2800, 0.2500, 0.2500, 0.2300, 0.2700, 0.3900, 0.4100, 0.3400, 0.2800, 0.2700, 0.3100, 0.2600, 0.2400, 0.2600, 0.2300, 0.2600, 0.2300, 0.2500, 0.2400, 0.2400, 0.2400, 0.2500, 0.2600, 0.2700, 0.2800, 0.2700, 0.3000, 0.3300, 0.2800, 0.3800, 0.5000, 0.6900, 0.8200, 1.0000, 0.9500, 0.8500, 0.8600, 0.7900, 0.7700, 0.7600, 0.7600, 0.7200, 0.7700, 0.7300, 0.6600, 0.6500, 0.6000, 0.5800, 0.5600, 0.5300, 0.5000, 0.4600, 0.4600, 0.3800, 0.3700, 0.3500, 0.3200, 0.2, 0.2, 0.2, 0.2, 0.2, 0.2, 0.2, 0.2, 0.2, 0.2, 0.2, 0.2, 0.2, 0.2, 0.2, 0.2, 0.2, 0.2, 0.2, 0.2, 0.2, 0.2, 0.2, 0.2, 0.2, 0.2, 0.2, 0.2, 0.2, 0.2, 0.2, 0.2, 0.2, 0.2, 0.2, 0.2, 0.2, 0.2, 0.2, 0.2, 0.2, 0.2, 0.2, 0.2, 0.2, 0.2, 0.2, 0.2, 0.2, 0.2, 0.2, 0.2, 0.2, 0.2, 0.2, 0.2, 0.2, 0.2, 0.2, 0.2, 0.2, 0.2, 0.2, 0.2, 0.2, 0.2, 0.2, 0.2, 0.2, 0.2, 0.2, 0.2, 0.2, 0.2, 0.2, 0.2, 0.2, 0.2, 0.2, 0.2, 0.2, 0.2, 0.2, 0.2, 0.2, 0.2, 0.2, 0.2, 0.2, 0.2, 0.2, 0.2, 0.2, 0.2, 0.2, 0.2, 0.2, 0.2, 0.2, 0.2, 0.2, 0.2, 0.2, 0.2, 0.2, 0.2, 0.2, 0.2, 0.2, 0.2, 0.2, 0.2, 0.2, 0.2, 0.2, 0.2, 0.2, 0.2, 0.2, 0.2, 0.2, 0.2, 0.2, 0.2, 0.2, 0.2, 0.2, 0.2, 0.2, 0.2, 0.2, 0.2, 0.2, 0.2, 0.2, 0.2, 0.2, 0.2, 0.2, 0.2, 0.2, 0.2, 0.2, 0.2, 0.2, 0.2, 0.2, 0.2, 0.2, 0.2, 0.2, 0.2, 0.2, 0.2, 0.2, 0.2, 0.2, 0.2, 0.2, 0.2, 0.2, 0.2, 0.2, 0.2, 0.2, 0.2, 0.2, 0.2, 0.2, 0.2, 0.2, 0.2, 0.2, 0.2, 0.2, 0.2, 0.2, 0.2, 0.2, 0.2, 0.2, 0.2, 0.2, 0.2, 0.2, 0.2, 0.2, 0.2, 0.2, 0.2, 0.2, 0.2, 0.17000, 0.16000, 0.17000, 0.15000, 0.17000, 0.16000, 0.15000, 0.18000, 0.16000, 0.15000, 0.17000, 0.14000, 0.15000, 0.16000, 0.14000, 0.17000, 0.19000, 0.19000, 0.17000, 0.18000, 0.14000, 0.19000, 0.15000, 0.17000, 0.17000, 0.17000, 0.12000, 0.14000, 0.15000, 0.15000, 0.19000, 0.11000, 0.21000, 0.18000, 0.14000, 0.14000, 0.27000, 0.22000, 0.20000, 0.37000, 0.21000, 0.41000, 0.25000, 0.35000, 0.30000, 0.30000, 0.31000, 0.18000, 0.24000, 0.23000, 0.16000, 0.16000, 0.19000, 0.21000, 0.38000, 0.23000, 0.30000, 0.22000, 0.19000, 0.20000, 0.23000, 0.32000, 0.23000, 0.17000, 0.17000, 0.16000, 0.18000, 0.30000, 0.35000, 0.34000, 0.70000, 0.95000, 0.78000, 0.56000, 0.73000, 0.69000, 1.00000, 0.81000, 0.77000, 0.81000, 0.72000, 0.77000, 0.76000, 0.68000, 0.51000, 0.62000, 0.85000, 0.64000, 0.51000, 0.47000, 0.43000, 0.43000, 0.27000, 0.21000, 0.18000, 0.20000, 0.3600, 0.3200, 0.3000, 0.2800, 0.2600, 0.2500, 0.2500, 0.2300, 0.2300, 0.2200, 0.2100, 0.2100, 0.2200, 0.2100, 0.2100, 0.2000, 0.1900, 0.2100, 0.2200, 0.2100, 0.2400, 0.2700, 0.3900, 0.6100, 0.5800, 0.6800, 0.4000, 0.3100, 0.3400, 0.4600, 0.4800, 0.3300, 0.2500, 0.2500, 0.2400, 0.2700, 0.2800, 0.2700, 0.3200, 0.2700, 0.2500, 0.2900, 0.3200, 0.3600, 0.4400, 0.4300, 0.4000, 0.4500, 0.3800, 0.4400, 0.4000, 0.3400, 0.3300, 0.3600, 0.4100, 0.3700, 0.3700, 0.3600, 0.3900, 0.3700, 0.3500, 0.3400, 0.3700, 0.3200, 0.3600, 0.3900, 0.4000, 0.4500, 0.5000, 0.4400, 0.5500, 0.7700, 0.7600, 0.8400, 0.8900, 0.9600, 1.0000, 0.9600, 0.9400, 0.8600, 0.8300, 0.7900, 0.7800, 0.7200, 0.6900, 0.6900, 0.7000, 0.6700, 0.6200, 0.6600, 0.5900, 0.5300, 0.4600, 0.4500, 0.4500, 0.4100)


New LoadShape.Lfds_1 Npts=576 minterval=15 
 ~ Mult=(0.17000, 0.16000, 0.17000, 0.15000, 0.17000, 0.16000, 0.15000, 0.18000, 0.16000, 0.15000, 0.17000, 0.14000, 0.15000, 0.16000, 0.14000, 0.17000, 0.19000, 0.19000, 0.17000, 0.18000, 0.14000, 0.19000, 0.15000, 0.17000, 0.17000, 0.17000, 0.12000, 0.14000, 0.15000, 0.15000, 0.19000, 0.11000, 0.21000, 0.18000, 0.14000, 0.14000, 0.27000, 0.22000, 0.20000, 0.37000, 0.21000, 0.41000, 0.25000, 0.35000, 0.30000, 0.30000, 0.31000, 0.18000, 0.24000, 0.23000, 0.16000, 0.16000, 0.19000, 0.21000, 0.38000, 0.23000, 0.30000, 0.22000, 0.19000, 0.20000, 0.23000, 0.32000, 0.23000, 0.17000, 0.17000, 0.16000, 0.18000, 0.30000, 0.35000, 0.34000, 0.70000, 0.95000, 0.78000, 0.56000, 0.73000, 0.69000, 1.00000, 0.81000, 0.77000, 0.81000, 0.72000, 0.77000, 0.76000, 0.68000, 0.51000, 0.62000, 0.85000, 0.64000, 0.51000, 0.47000, 0.43000, 0.43000, 0.27000, 0.21000, 0.18000, 0.20000, 0.2900, 0.2600, 0.2400, 0.2200, 0.2000, 0.2000, 0.1800, 0.1700, 0.1700, 0.1700, 0.1700, 0.1700, 0.1600, 0.1600, 0.1600, 0.1600, 0.1600, 0.1500, 0.1500, 0.1500, 0.2000, 0.2500, 0.3800, 0.4900, 0.2600, 0.2600, 0.2400, 0.2400, 0.2100, 0.2400, 0.1900, 0.1900, 0.2300, 0.2400, 0.2100, 0.2300, 0.2600, 0.2300, 0.2400, 0.2800, 0.2500, 0.2500, 0.2300, 0.2700, 0.3900, 0.4100, 0.3400, 0.2800, 0.2700, 0.3100, 0.2600, 0.2400, 0.2600, 0.2300, 0.2600, 0.2300, 0.2500, 0.2400, 0.2400, 0.2400, 0.2500, 0.2600, 0.2700, 0.2800, 0.2700, 0.3000, 0.3300, 0.2800, 0.3800, 0.5000, 0.6900, 0.8200, 1.0000, 0.9500, 0.8500, 0.8600, 0.7900, 0.7700, 0.7600, 0.7600, 0.7200, 0.7700, 0.7300, 0.6600, 0.6500, 0.6000, 0.5800, 0.5600, 0.5300, 0.5000, 0.4600, 0.4600, 0.3800, 0.3700, 0.3500, 0.3200, 0.2, 0.2, 0.2, 0.2, 0.2, 0.2, 0.2, 0.2, 0.2, 0.2, 0.2, 0.2, 0.2, 0.2, 0.2, 0.2, 0.2, 0.2, 0.2, 0.2, 0.2, 0.2, 0.2, 0.2, 0.2, 0.2, 0.2, 0.2, 0.2, 0.2, 0.2, 0.2, 0.2, 0.2, 0.2, 0.2, 0.2, 0.2, 0.2, 0.2, 0.2, 0.2, 0.2, 0.2, 0.2, 0.2, 0.2, 0.2, 0.2, 0.2, 0.2, 0.2, 0.2, 0.2, 0.2, 0.2, 0.2, 0.2, 0.2, 0.2, 0.2, 0.2, 0.2, 0.2, 0.2, 0.2, 0.2, 0.2, 0.2, 0.2, 0.2, 0.2, 0.2, 0.2, 0.2, 0.2, 0.2, 0.2, 0.2, 0.2, 0.2, 0.2, 0.2, 0.2, 0.2, 0.2, 0.2, 0.2, 0.2, 0.2, 0.2, 0.2, 0.2, 0.2, 0.2, 0.2, 0.2, 0.2, 0.2, 0.2, 0.2, 0.2, 0.2, 0.2, 0.2, 0.2, 0.2, 0.2, 0.2, 0.2, 0.2, 0.2, 0.2, 0.2, 0.2, 0.2, 0.2, 0.2, 0.2, 0.2, 0.2, 0.2, 0.2, 0.2, 0.2, 0.2, 0.2, 0.2, 0.2, 0.2, 0.2, 0.2, 0.2, 0.2, 0.2, 0.2, 0.2, 0.2, 0.2, 0.2, 0.2, 0.2, 0.2, 0.2, 0.2, 0.2, 0.2, 0.2, 0.2, 0.2, 0.2, 0.2, 0.2, 0.2, 0.2, 0.2, 0.2, 0.2, 0.2, 0.2, 0.2, 0.2, 0.2, 0.2, 0.2, 0.2, 0.2, 0.2, 0.2, 0.2, 0.2, 0.2, 0.2, 0.2, 0.2, 0.2, 0.2, 0.2, 0.2, 0.2, 0.2, 0.2, 0.2, 0.2, 0.2, 0.2, 0.2, 0.2, 0.2, 0.2, 0.2, 0.2, 0.3600, 0.3200, 0.3000, 0.2800, 0.2600, 0.2500, 0.2500, 0.2300, 0.2300, 0.2200, 0.2100, 0.2100, 0.2200, 0.2100, 0.2100, 0.2000, 0.1900, 0.2100, 0.2200, 0.2100, 0.2400, 0.2700, 0.3900, 0.6100, 0.5800, 0.6800, 0.4000, 0.3100, 0.3400, 0.4600, 0.4800, 0.3300, 0.2500, 0.2500, 0.2400, 0.2700, 0.2800, 0.2700, 0.3200, 0.2700, 0.2500, 0.2900, 0.3200, 0.3600, 0.4400, 0.4300, 0.4000, 0.4500, 0.3800, 0.4400, 0.4000, 0.3400, 0.3300, 0.3600, 0.4100, 0.3700, 0.3700, 0.3600, 0.3900, 0.3700, 0.3500, 0.3400, 0.3700, 0.3200, 0.3600, 0.3900, 0.4000, 0.4500, 0.5000, 0.4400, 0.5500, 0.7700, 0.7600, 0.8400, 0.8900, 0.9600, 1.0000, 0.9600, 0.9400, 0.8600, 0.8300, 0.7900, 0.7800, 0.7200, 0.6900, 0.6900, 0.7000, 0.6700, 0.6200, 0.6600, 0.5900, 0.5300, 0.4600, 0.4500, 0.4500, 0.4100, 0.4400, 0.4000, 0.4000, 0.3800, 0.3700, 0.3500, 0.3800, 0.3400, 0.3400, 0.3300, 0.3400, 0.3400, 0.3200, 0.3300, 0.3400, 0.3400, 0.3200, 0.3100, 0.3300, 0.3300, 0.3400, 0.3200, 0.3300, 0.3500, 0.3700, 0.3400, 0.3600, 0.3800, 0.5300, 0.5000, 0.4100, 0.3500, 0.4000, 0.4500, 0.4400, 0.4300, 0.4400, 0.4100, 0.4400, 0.4200, 0.4100, 0.4300, 0.3700, 0.3800, 0.3700, 0.4100, 0.3700, 0.4100, 0.4800, 0.4700, 0.4500, 0.4500, 0.4300, 0.5000, 0.4400, 0.3700, 0.3700, 0.3900, 0.4100, 0.4400, 0.4200, 0.4400, 0.4500, 0.4600, 0.5800, 0.4800, 0.5000, 0.5500, 0.4700, 0.6000, 0.7900, 0.8800, 0.9100, 0.9700, 1.0000, 0.9500, 0.9800, 0.9800, 0.9000, 0.9400, 0.9600, 0.8700, 0.7800, 0.7600, 0.7700, 0.6900, 0.7200, 0.8000, 0.7400, 0.7600, 0.8300, 0.6400, 0.6700, 0.6000, 0.5600, 0.5000)

New LoadShape.Lfds_2 Npts=576 minterval=15
 ~ Mult=(0.3600, 0.3200, 0.3000, 0.2800, 0.2600, 0.2500, 0.2500, 0.2300, 0.2300, 0.2200, 0.2100, 0.2100, 0.2200, 0.2100, 0.2100, 0.2000, 0.1900, 0.2100, 0.2200, 0.2100, 0.2400, 0.2700, 0.3900, 0.6100, 0.5800, 0.6800, 0.4000, 0.3100, 0.3400, 0.4600, 0.4800, 0.3300, 0.2500, 0.2500, 0.2400, 0.2700, 0.2800, 0.2700, 0.3200, 0.2700, 0.2500, 0.2900, 0.3200, 0.3600, 0.4400, 0.4300, 0.4000, 0.4500, 0.3800, 0.4400, 0.4000, 0.3400, 0.3300, 0.3600, 0.4100, 0.3700, 0.3700, 0.3600, 0.3900, 0.3700, 0.3500, 0.3400, 0.3700, 0.3200, 0.3600, 0.3900, 0.4000, 0.4500, 0.5000, 0.4400, 0.5500, 0.7700, 0.7600, 0.8400, 0.8900, 0.9600, 1.0000, 0.9600, 0.9400, 0.8600, 0.8300, 0.7900, 0.7800, 0.7200, 0.6900, 0.6900, 0.7000, 0.6700, 0.6200, 0.6600, 0.5900, 0.5300, 0.4600, 0.4500, 0.4500, 0.4100, 0.4400, 0.4000, 0.4000, 0.3800, 0.3700, 0.3500, 0.3800, 0.3400, 0.3400, 0.3300, 0.3400, 0.3400, 0.3200, 0.3300, 0.3400, 0.3400, 0.3200, 0.3100, 0.3300, 0.3300, 0.3400, 0.3200, 0.3300, 0.3500, 0.3700, 0.3400, 0.3600, 0.3800, 0.5300, 0.5000, 0.4100, 0.3500, 0.4000, 0.4500, 0.4400, 0.4300, 0.4400, 0.4100, 0.4400, 0.4200, 0.4100, 0.4300, 0.3700, 0.3800, 0.3700, 0.4100, 0.3700, 0.4100, 0.4800, 0.4700, 0.4500, 0.4500, 0.4300, 0.5000, 0.4400, 0.3700, 0.3700, 0.3900, 0.4100, 0.4400, 0.4200, 0.4400, 0.4500, 0.4600, 0.5800, 0.4800, 0.5000, 0.5500, 0.4700, 0.6000, 0.7900, 0.8800, 0.9100, 0.9700, 1.0000, 0.9500, 0.9800, 0.9800, 0.9000, 0.9400, 0.9600, 0.8700, 0.7800, 0.7600, 0.7700, 0.6900, 0.7200, 0.8000, 0.7400, 0.7600, 0.8300, 0.6400, 0.6700, 0.6000, 0.5600, 0.5000, 0.2, 0.2, 0.2, 0.2, 0.2, 0.2, 0.2, 0.2, 0.2, 0.2, 0.2, 0.2, 0.2, 0.2, 0.2, 0.2, 0.2, 0.2, 0.2, 0.2, 0.2, 0.2, 0.2, 0.2, 0.2, 0.2, 0.2, 0.2, 0.2, 0.2, 0.2, 0.2, 0.2, 0.2, 0.2, 0.2, 0.2, 0.2, 0.2, 0.2, 0.2, 0.2, 0.2, 0.2, 0.2, 0.2, 0.2, 0.2, 0.2, 0.2, 0.2, 0.2, 0.2, 0.2, 0.2, 0.2, 0.2, 0.2, 0.2, 0.2, 0.2, 0.2, 0.2, 0.2, 0.2, 0.2, 0.2, 0.2, 0.2, 0.2, 0.2, 0.2, 0.2, 0.2, 0.2, 0.2, 0.2, 0.2, 0.2, 0.2, 0.2, 0.2, 0.2, 0.2, 0.2, 0.2, 0.2, 0.2, 0.2, 0.2, 0.2, 0.2, 0.2, 0.2, 0.2, 0.2, 0.2, 0.2, 0.2, 0.2, 0.2, 0.2, 0.2, 0.2, 0.2, 0.2, 0.2, 0.2, 0.2, 0.2, 0.2, 0.2, 0.2, 0.2, 0.2, 0.2, 0.2, 0.2, 0.2, 0.2, 0.2, 0.2, 0.2, 0.2, 0.2, 0.2, 0.2, 0.2, 0.2, 0.2, 0.2, 0.2, 0.2, 0.2, 0.2, 0.2, 0.2, 0.2, 0.2, 0.2, 0.2, 0.2, 0.2, 0.2, 0.2, 0.2, 0.2, 0.2, 0.2, 0.2, 0.2, 0.2, 0.2, 0.2, 0.2, 0.2, 0.2, 0.2, 0.2, 0.2, 0.2, 0.2, 0.2, 0.2, 0.2, 0.2, 0.2, 0.2, 0.2, 0.2, 0.2, 0.2, 0.2, 0.2, 0.2, 0.2, 0.2, 0.2, 0.2, 0.2, 0.2, 0.2, 0.2, 0.2, 0.2, 0.2, 0.2, 0.2, 0.2, 0.2, 0.2, 0.2, 0.2900, 0.2600, 0.2400, 0.2200, 0.2000, 0.2000, 0.1800, 0.1700, 0.1700, 0.1700, 0.1700, 0.1700, 0.1600, 0.1600, 0.1600, 0.1600, 0.1600, 0.1500, 0.1500, 0.1500, 0.2000, 0.2500, 0.3800, 0.4900, 0.2600, 0.2600, 0.2400, 0.2400, 0.2100, 0.2400, 0.1900, 0.1900, 0.2300, 0.2400, 0.2100, 0.2300, 0.2600, 0.2300, 0.2400, 0.2800, 0.2500, 0.2500, 0.2300, 0.2700, 0.3900, 0.4100, 0.3400, 0.2800, 0.2700, 0.3100, 0.2600, 0.2400, 0.2600, 0.2300, 0.2600, 0.2300, 0.2500, 0.2400, 0.2400, 0.2400, 0.2500, 0.2600, 0.2700, 0.2800, 0.2700, 0.3000, 0.3300, 0.2800, 0.3800, 0.5000, 0.6900, 0.8200, 1.0000, 0.9500, 0.8500, 0.8600, 0.7900, 0.7700, 0.7600, 0.7600, 0.7200, 0.7700, 0.7300, 0.6600, 0.6500, 0.6000, 0.5800, 0.5600, 0.5300, 0.5000, 0.4600, 0.4600, 0.3800, 0.3700, 0.3500, 0.3200, 0.17000, 0.16000, 0.17000, 0.15000, 0.17000, 0.16000, 0.15000, 0.18000, 0.16000, 0.15000, 0.17000, 0.14000, 0.15000, 0.16000, 0.14000, 0.17000, 0.19000, 0.19000, 0.17000, 0.18000, 0.14000, 0.19000, 0.15000, 0.17000, 0.17000, 0.17000, 0.12000, 0.14000, 0.15000, 0.15000, 0.19000, 0.11000, 0.21000, 0.18000, 0.14000, 0.14000, 0.27000, 0.22000, 0.20000, 0.37000, 0.21000, 0.41000, 0.25000, 0.35000, 0.30000, 0.30000, 0.31000, 0.18000, 0.24000, 0.23000, 0.16000, 0.16000, 0.19000, 0.21000, 0.38000, 0.23000, 0.30000, 0.22000, 0.19000, 0.20000, 0.23000, 0.32000, 0.23000, 0.17000, 0.17000, 0.16000, 0.18000, 0.30000, 0.35000, 0.34000, 0.70000, 0.95000, 0.78000, 0.56000, 0.73000, 0.69000, 1.00000, 0.81000, 0.77000, 0.81000, 0.72000, 0.77000, 0.76000, 0.68000, 0.51000, 0.62000, 0.85000, 0.64000, 0.51000, 0.47000, 0.43000, 0.43000, 0.27000, 0.21000, 0.18000, 0.20000)

 
New LoadShape.Lfds_3 Npts=576 minterval=15 
~ Mult=(0.2900, 0.2600, 0.2400, 0.2200, 0.2000, 0.2000, 0.1800, 0.1700, 0.1700, 0.1700, 0.1700, 0.1700, 0.1600, 0.1600, 0.1600, 0.1600, 0.1600, 0.1500, 0.1500, 0.1500, 0.2000, 0.2500, 0.3800, 0.4900, 0.2600, 0.2600, 0.2400, 0.2400, 0.2100, 0.2400, 0.1900, 0.1900, 0.2300, 0.2400, 0.2100, 0.2300, 0.2600, 0.2300, 0.2400, 0.2800, 0.2500, 0.2500, 0.2300, 0.2700, 0.3900, 0.4100, 0.3400, 0.2800, 0.2700, 0.3100, 0.2600, 0.2400, 0.2600, 0.2300, 0.2600, 0.2300, 0.2500, 0.2400, 0.2400, 0.2400, 0.2500, 0.2600, 0.2700, 0.2800, 0.2700, 0.3000, 0.3300, 0.2800, 0.3800, 0.5000, 0.6900, 0.8200, 1.0000, 0.9500, 0.8500, 0.8600, 0.7900, 0.7700, 0.7600, 0.7600, 0.7200, 0.7700, 0.7300, 0.6600, 0.6500, 0.6000, 0.5800, 0.5600, 0.5300, 0.5000, 0.4600, 0.4600, 0.3800, 0.3700, 0.3500, 0.3200, 0.3600, 0.3200, 0.3000, 0.2800, 0.2600, 0.2500, 0.2500, 0.2300, 0.2300, 0.2200, 0.2100, 0.2100, 0.2200, 0.2100, 0.2100, 0.2000, 0.1900, 0.2100, 0.2200, 0.2100, 0.2400, 0.2700, 0.3900, 0.6100, 0.5800, 0.6800, 0.4000, 0.3100, 0.3400, 0.4600, 0.4800, 0.3300, 0.2500, 0.2500, 0.2400, 0.2700, 0.2800, 0.2700, 0.3200, 0.2700, 0.2500, 0.2900, 0.3200, 0.3600, 0.4400, 0.4300, 0.4000, 0.4500, 0.3800, 0.4400, 0.4000, 0.3400, 0.3300, 0.3600, 0.4100, 0.3700, 0.3700, 0.3600, 0.3900, 0.3700, 0.3500, 0.3400, 0.3700, 0.3200, 0.3600, 0.3900, 0.4000, 0.4500, 0.5000, 0.4400, 0.5500, 0.7700, 0.7600, 0.8400, 0.8900, 0.9600, 1.0000, 0.9600, 0.9400, 0.8600, 0.8300, 0.7900, 0.7800, 0.7200, 0.6900, 0.6900, 0.7000, 0.6700, 0.6200, 0.6600, 0.5900, 0.5300, 0.4600, 0.4500, 0.4500, 0.4100, 0.2, 0.2, 0.2, 0.2, 0.2, 0.2, 0.2, 0.2, 0.2, 0.2, 0.2, 0.2, 0.2, 0.2, 0.2, 0.2, 0.2, 0.2, 0.2, 0.2, 0.2, 0.2, 0.2, 0.2, 0.2, 0.2, 0.2, 0.2, 0.2, 0.2, 0.2, 0.2, 0.2, 0.2, 0.2, 0.2, 0.2, 0.2, 0.2, 0.2, 0.2, 0.2, 0.2, 0.2, 0.2, 0.2, 0.2, 0.2, 0.2, 0.2, 0.2, 0.2, 0.2, 0.2, 0.2, 0.2, 0.2, 0.2, 0.2, 0.2, 0.2, 0.2, 0.2, 0.2, 0.2, 0.2, 0.2, 0.2, 0.2, 0.2, 0.2, 0.2, 0.2, 0.2, 0.2, 0.2, 0.2, 0.2, 0.2, 0.2, 0.2, 0.2, 0.2, 0.2, 0.2, 0.2, 0.2, 0.2, 0.2, 0.2, 0.2, 0.2, 0.2, 0.2, 0.2, 0.2, 0.2, 0.2, 0.2, 0.2, 0.2, 0.2, 0.2, 0.2, 0.2, 0.2, 0.2, 0.2, 0.2, 0.2, 0.2, 0.2, 0.2, 0.2, 0.2, 0.2, 0.2, 0.2, 0.2, 0.2, 0.2, 0.2, 0.2, 0.2, 0.2, 0.2, 0.2, 0.2, 0.2, 0.2, 0.2, 0.2, 0.2, 0.2, 0.2, 0.2, 0.2, 0.2, 0.2, 0.2, 0.2, 0.2, 0.2, 0.2, 0.2, 0.2, 0.2, 0.2, 0.2, 0.2, 0.2, 0.2, 0.2, 0.2, 0.2, 0.2, 0.2, 0.2, 0.2, 0.2, 0.2, 0.2, 0.2, 0.2, 0.2, 0.2, 0.2, 0.2, 0.2, 0.2, 0.2, 0.2, 0.2, 0.2, 0.2, 0.2, 0.2, 0.2, 0.2, 0.2, 0.2, 0.2, 0.2, 0.2, 0.2, 0.2, 0.2, 0.2, 0.2, 0.2, 0.2, 0.2, 0.4400, 0.4000, 0.4000, 0.3800, 0.3700, 0.3500, 0.3800, 0.3400, 0.3400, 0.3300, 0.3400, 0.3400, 0.3200, 0.3300, 0.3400, 0.3400, 0.3200, 0.3100, 0.3300, 0.3300, 0.3400, 0.3200, 0.3300, 0.3500, 0.3700, 0.3400, 0.3600, 0.3800, 0.5300, 0.5000, 0.4100, 0.3500, 0.4000, 0.4500, 0.4400, 0.4300, 0.4400, 0.4100, 0.4400, 0.4200, 0.4100, 0.4300, 0.3700, 0.3800, 0.3700, 0.4100, 0.3700, 0.4100, 0.4800, 0.4700, 0.4500, 0.4500, 0.4300, 0.5000, 0.4400, 0.3700, 0.3700, 0.3900, 0.4100, 0.4400, 0.4200, 0.4400, 0.4500, 0.4600, 0.5800, 0.4800, 0.5000, 0.5500, 0.4700, 0.6000, 0.7900, 0.8800, 0.9100, 0.9700, 1.0000, 0.9500, 0.9800, 0.9800, 0.9000, 0.9400, 0.9600, 0.8700, 0.7800, 0.7600, 0.7700, 0.6900, 0.7200, 0.8000, 0.7400, 0.7600, 0.8300, 0.6400, 0.6700, 0.6000, 0.5600, 0.5000, 0.17000, 0.16000, 0.17000, 0.15000, 0.17000, 0.16000, 0.15000, 0.18000, 0.16000, 0.15000, 0.17000, 0.14000, 0.15000, 0.16000, 0.14000, 0.17000, 0.19000, 0.19000, 0.17000, 0.18000, 0.14000, 0.19000, 0.15000, 0.17000, 0.17000, 0.17000, 0.12000, 0.14000, 0.15000, 0.15000, 0.19000, 0.11000, 0.21000, 0.18000, 0.14000, 0.14000, 0.27000, 0.22000, 0.20000, 0.37000, 0.21000, 0.41000, 0.25000, 0.35000, 0.30000, 0.30000, 0.31000, 0.18000, 0.24000, 0.23000, 0.16000, 0.16000, 0.19000, 0.21000, 0.38000, 0.23000, 0.30000, 0.22000, 0.19000, 0.20000, 0.23000, 0.32000, 0.23000, 0.17000, 0.17000, 0.16000, 0.18000, 0.30000, 0.35000, 0.34000, 0.70000, 0.95000, 0.78000, 0.56000, 0.73000, 0.69000, 1.00000, 0.81000, 0.77000, 0.81000, 0.72000, 0.77000, 0.76000, 0.68000, 0.51000, 0.62000, 0.85000, 0.64000, 0.51000, 0.47000, 0.43000, 0.43000, 0.27000, 0.21000, 0.18000, 0.20000)

