! Created by miniodss on 2015-12-14T17:47 and modified by Leandro 

New LoadShape.pico_9100-2 Npts=96 
~ Mult=(0.36, 0.32, 0.30, 0.28, 0.26, 0.25, 0.25, 0.23, 0.23, 0.22, 0.21, 0.21, 0.22, 0.21, 0.21, 0.20, 0.19, 0.21, 0.22, 0.21, 0.24, 0.27, 0.39, 0.61, 0.58, 0.68, 0.40, 0.31, 0.34, 0.46, 0.48, 0.33, 0.25, 0.25, 0.24, 0.27, 0.28, 0.27, 0.32, 0.27, 0.25, 0.29, 0.32, 0.36, 0.44, 0.43, 0.40, 0.45, 0.38, 0.44, 0.40, 0.34, 0.33, 0.36, 0.41, 0.37, 0.37, 0.36, 0.39, 0.37, 0.35, 0.34, 0.37, 0.32, 0.36, 0.39, 0.40, 0.45, 0.50, 0.44, 0.55, 0.77, 0.76, 0.84, 0.89, 0.96, 1.00, 0.96, 0.94, 0.86, 0.83, 0.79, 0.78, 0.72, 0.69, 0.69, 0.70, 0.67, 0.62, 0.66, 0.59, 0.53, 0.46, 0.45, 0.45, 0.41)
~ Hour=(0.0, 0.25, 0.5, 0.75, 1.0, 1.25, 1.5, 1.75, 2.0, 2.25, 2.5, 2.75, 3.0, 3.25, 3.5, 3.75, 4.0, 4.25, 4.5, 4.75, 5.0, 5.25, 5.5, 5.75, 6.0, 6.25, 6.5, 6.75, 7.0, 7.25, 7.5, 7.75, 8.0, 8.25, 8.5, 8.75, 9.0, 9.25, 9.5, 9.75, 10.0, 10.25, 10.5, 10.75, 11.0, 11.25, 11.5, 11.75, 12.0, 12.25, 12.5, 12.75, 13.0, 13.25, 13.5, 13.75, 14.0, 14.25, 14.5, 14.75, 15.0, 15.25, 15.5, 15.75, 16.0, 16.25, 16.5, 16.75, 17.0, 17.25, 17.5, 17.75, 18.0, 18.25, 18.5, 18.75, 19.0, 19.25, 19.5, 19.75, 20.0, 20.25, 20.5, 20.75, 21.0, 21.25, 21.5, 21.75, 22.0, 22.25, 22.5, 22.75, 23.0, 23.25, 23.5, 23.75)

New LoadShape.pico_9100-3 Npts=96 
 ~ Mult=(0.29, 0.26, 0.24, 0.22, 0.20, 0.20, 0.18, 0.17, 0.17, 0.17, 0.17, 0.17, 0.16, 0.16, 0.16, 0.16, 0.16, 0.15, 0.15, 0.15, 0.20, 0.25, 0.38, 0.49, 0.26, 0.26, 0.24, 0.24, 0.21, 0.24, 0.19, 0.19, 0.23, 0.24, 0.21, 0.23, 0.26, 0.23, 0.24, 0.28, 0.25, 0.25, 0.23, 0.27, 0.39, 0.41, 0.34, 0.28, 0.27, 0.31, 0.26, 0.24, 0.26, 0.23, 0.26, 0.23, 0.25, 0.24, 0.24, 0.24, 0.25, 0.26, 0.27, 0.28, 0.27, 0.30, 0.33, 0.28, 0.38, 0.50, 0.69, 0.82, 1.00, 0.95, 0.85, 0.86, 0.79, 0.77, 0.76, 0.76, 0.72, 0.77, 0.73, 0.66, 0.65, 0.60, 0.58, 0.56, 0.53, 0.50, 0.46, 0.46, 0.38, 0.37, 0.35, 0.32)
 ~ Hour=(0.0, 0.25, 0.5, 0.75, 1.0, 1.25, 1.5, 1.75, 2.0, 2.25, 2.5, 2.75, 3.0, 3.25, 3.5, 3.75, 4.0, 4.25, 4.5, 4.75, 5.0, 5.25, 5.5, 5.75, 6.0, 6.25, 6.5, 6.75, 7.0, 7.25, 7.5, 7.75, 8.0, 8.25, 8.5, 8.75, 9.0, 9.25, 9.5, 9.75, 10.0, 10.25, 10.5, 10.75, 11.0, 11.25, 11.5, 11.75, 12.0, 12.25, 12.5, 12.75, 13.0, 13.25, 13.5, 13.75, 14.0, 14.25, 14.5, 14.75, 15.0, 15.25, 15.5, 15.75, 16.0, 16.25, 16.5, 16.75, 17.0, 17.25, 17.5, 17.75, 18.0, 18.25, 18.5, 18.75, 19.0, 19.25, 19.5, 19.75, 20.0, 20.25, 20.5, 20.75, 21.0, 21.25, 21.5, 21.75, 22.0, 22.25, 22.5, 22.75, 23.0, 23.25, 23.5, 23.75)

New LoadShape.pico_9100-0 Npts=96 
 ~ Mult=(0.44, 0.40, 0.40, 0.38, 0.37, 0.35, 0.38, 0.34, 0.34, 0.33, 0.34, 0.34, 0.32, 0.33, 0.34, 0.34, 0.32, 0.31, 0.33, 0.33, 0.34, 0.32, 0.33, 0.35, 0.37, 0.34, 0.36, 0.38, 0.53, 0.50, 0.41, 0.35, 0.40, 0.45, 0.44, 0.43, 0.44, 0.41, 0.44, 0.42, 0.41, 0.43, 0.37, 0.38, 0.37, 0.41, 0.37, 0.41, 0.48, 0.47, 0.45, 0.45, 0.43, 0.50, 0.44, 0.37, 0.37, 0.39, 0.41, 0.44, 0.42, 0.44, 0.45, 0.46, 0.58, 0.48, 0.50, 0.55, 0.47, 0.60, 0.79, 0.88, 0.91, 0.97, 1.00, 0.95, 0.98, 0.98, 0.90, 0.94, 0.96, 0.87, 0.78, 0.76, 0.77, 0.69, 0.72, 0.80, 0.74, 0.76, 0.83, 0.64, 0.67, 0.60, 0.56, 0.50)
 ~ Hour=(0.0, 0.25, 0.5, 0.75, 1.0, 1.25, 1.5, 1.75, 2.0, 2.25, 2.5, 2.75, 3.0, 3.25, 3.5, 3.75, 4.0, 4.25, 4.5, 4.75, 5.0, 5.25, 5.5, 5.75, 6.0, 6.25, 6.5, 6.75, 7.0, 7.25, 7.5, 7.75, 8.0, 8.25, 8.5, 8.75, 9.0, 9.25, 9.5, 9.75, 10.0, 10.25, 10.5, 10.75, 11.0, 11.25, 11.5, 11.75, 12.0, 12.25, 12.5, 12.75, 13.0, 13.25, 13.5, 13.75, 14.0, 14.25, 14.5, 14.75, 15.0, 15.25, 15.5, 15.75, 16.0, 16.25, 16.5, 16.75, 17.0, 17.25, 17.5, 17.75, 18.0, 18.25, 18.5, 18.75, 19.0, 19.25, 19.5, 19.75, 20.0, 20.25, 20.5, 20.75, 21.0, 21.25, 21.5, 21.75, 22.0, 22.25, 22.5, 22.75, 23.0, 23.25, 23.5, 23.75)

New LoadShape.pico_6330-0 Npts=96 
~ Mult=(0.00, 0.00, 0.00, 0.00, 0.00, 0.00, 0.00, 0.00, 0.00, 0.00, 0.00, 0.00, 0.00, 0.00, 0.00, 0.00, 0.00, 0.00, 0.00, 0.00, 0.00, 0.00, 0.00, 0.00, 0.00, 0.00, 0.00, 0.00, 0.00, 0.32, 0.66, 0.63, 0.68, 0.78, 0.84, 0.90, 0.92, 0.87, 0.89, 0.90, 0.88, 0.89, 0.90, 0.91, 0.90, 0.90, 0.90, 0.91, 0.90, 0.88, 0.88, 0.90, 0.91, 0.89, 0.90, 0.92, 0.97, 1.00, 0.97, 0.99, 0.99, 1.00, 0.99, 1.00, 0.97, 0.95, 0.92, 0.97, 0.99, 0.98, 0.87, 0.86, 0.85, 0.83, 0.84, 0.84, 0.81, 0.79, 0.78, 0.77, 0.74, 0.66, 0.15, 0.12, 0.00, 0.00, 0.00, 0.00, 0.00, 0.00, 0.00, 0.00, 0.00, 0.00, 0.00, 0.00)
~ Hour=(0.0, 0.25, 0.5, 0.75, 1.0, 1.25, 1.5, 1.75, 2.0, 2.25, 2.5, 2.75, 3.0, 3.25, 3.5, 3.75, 4.0, 4.25, 4.5, 4.75, 5.0, 5.25, 5.5, 5.75, 6.0, 6.25, 6.5, 6.75, 7.0, 7.25, 7.5, 7.75, 8.0, 8.25, 8.5, 8.75, 9.0, 9.25, 9.5, 9.75, 10.0, 10.25, 10.5, 10.75, 11.0, 11.25, 11.5, 11.75, 12.0, 12.25, 12.5, 12.75, 13.0, 13.25, 13.5, 13.75, 14.0, 14.25, 14.5, 14.75, 15.0, 15.25, 15.5, 15.75, 16.0, 16.25, 16.5, 16.75, 17.0, 17.25, 17.5, 17.75, 18.0, 18.25, 18.5, 18.75, 19.0, 19.25, 19.5, 19.75, 20.0, 20.25, 20.5, 20.75, 21.0, 21.25, 21.5, 21.75, 22.0, 22.25, 22.5, 22.75, 23.0, 23.25, 23.5, 23.75)

New LoadShape.pico_9100-1 Npts=96 
~ Mult=(0.17, 0.16, 0.17, 0.15, 0.17, 0.16, 0.15, 0.18, 0.16, 0.15, 0.17, 0.14, 0.15, 0.16, 0.14, 0.17, 0.19, 0.19, 0.17, 0.18, 0.14, 0.19, 0.15, 0.17, 0.17, 0.17, 0.12, 0.14, 0.15, 0.15, 0.19, 0.11, 0.21, 0.18, 0.14, 0.14, 0.27, 0.22, 0.20, 0.37, 0.21, 0.41, 0.25, 0.35, 0.30, 0.30, 0.31, 0.18, 0.24, 0.23, 0.16, 0.16, 0.19, 0.21, 0.38, 0.23, 0.30, 0.22, 0.19, 0.20, 0.23, 0.32, 0.23, 0.17, 0.17, 0.16, 0.18, 0.30, 0.35, 0.34, 0.70, 0.95, 0.78, 0.56, 0.73, 0.69, 1.00, 0.81, 0.77, 0.81, 0.72, 0.77, 0.76, 0.68, 0.51, 0.62, 0.85, 0.64, 0.51, 0.47, 0.43, 0.43, 0.27, 0.21, 0.18, 0.20)
~ Hour=(0.0, 0.25, 0.5, 0.75, 1.0, 1.25, 1.5, 1.75, 2.0, 2.25, 2.5, 2.75, 3.0, 3.25, 3.5, 3.75, 4.0, 4.25, 4.5, 4.75, 5.0, 5.25, 5.5, 5.75, 6.0, 6.25, 6.5, 6.75, 7.0, 7.25, 7.5, 7.75, 8.0, 8.25, 8.5, 8.75, 9.0, 9.25, 9.5, 9.75, 10.0, 10.25, 10.5, 10.75, 11.0, 11.25, 11.5, 11.75, 12.0, 12.25, 12.5, 12.75, 13.0, 13.25, 13.5, 13.75, 14.0, 14.25, 14.5, 14.75, 15.0, 15.25, 15.5, 15.75, 16.0, 16.25, 16.5, 16.75, 17.0, 17.25, 17.5, 17.75, 18.0, 18.25, 18.5, 18.75, 19.0, 19.25, 19.5, 19.75, 20.0, 20.25, 20.5, 20.75, 21.0, 21.25, 21.5, 21.75, 22.0, 22.25, 22.5, 22.75, 23.0, 23.25, 23.5, 23.75)


