// P-T curve is per unit of rated Pmpp vs temperature
// This one is for a Pmpp stated at 25 deg

New XYCurve.MyPvsT npts=4 xarray=[0 25 75 100] yarray=[1.2 1.0 0.8 0.6]  !interpolated linearly between defined points - max power point

// efficiency curve is per unit eff vs per unit power

New XYCurve.MyEff npts=4 xarray=[.1 .2 .4 1.0] yarray=[.86 .9 .93 .97] ! temperature and efficiency (interpolated lineary between defined points)

// per unit irradiance curve (per unit if "irradiance" property)

New Loadshape.Irrad_1 npts=576 minterval=15 mult=[0, 0, 0, 0, 0, 0, 0, 0, 0, 0, 0, 0, 0, 0, 0, 0, 0, 0, 0, 0, 0, 0, 0, 0.000861111, 0.000861111, 0.000861111, 0.000861111, 0.080305556, 0.080305556, 0.080305556, 0.080305556, 0.317611111, 0.317611111, 0.317611111, 0.317611111, 0.32625, 0.32625, 0.32625, 0.32625, 0.421111111, 0.421111111, 0.421111111, 0.421111111, 0.859305556, 0.859305556, 0.859305556, 0.859305556, 1.036083333, 1.036083333, 1.036083333, 1.036083333, 0.808166667, 0.808166667, 0.808166667, 0.808166667, 0.08225, 0.08225, 0.08225, 0.08225, 0.022833333, 0.022833333, 0.022833333, 0.022833333, 0.225805556, 0.225805556, 0.225805556, 0.225805556, 0.226, 0.226, 0.226, 0.226, 0.124222222, 0.124222222, 0.124222222, 0.124222222, 0.023083333, 0.023083333, 0.023083333, 0.023083333, 0, 0, 0, 0, 0, 0, 0, 0, 0, 0, 0, 0, 0, 0, 0, 0, 0, 0, 0, 0, 0, 0, 0, 0, 0, 0, 0, 0, 0, 0, 0, 0, 0, 0, 0, 0, 0, 0, 0, 0, 0, 0, 0, 0, 0.002833333, 0.002833333, 0.002833333, 0.002833333, 0.063138889, 0.063138889, 0.063138889, 0.063138889, 0.207694444, 0.207694444, 0.207694444, 0.207694444, 0.386388889, 0.386388889, 0.386388889, 0.386388889, 0.408888889, 0.408888889, 0.408888889, 0.408888889, 0.566638889, 0.566638889, 0.566638889, 0.566638889, 0.554888889, 0.554888889, 0.554888889, 0.554888889, 0.409333333, 0.409333333, 0.409333333, 0.409333333, 0.331416667, 0.331416667, 0.331416667, 0.331416667, 0.159861111, 0.159861111, 0.159861111, 0.159861111, 0.057638889, 0.057638889, 0.057638889, 0.057638889, 0.011083333, 0.011083333, 0.011083333, 0.011083333, 0, 0, 0, 0, 0, 0, 0, 0, 0, 0, 0, 0, 0, 0, 0, 0, 0, 0, 0, 0, 0, 0, 0, 0, 0, 0, 0, 0, 0, 0, 0, 0, 0, 0, 0, 0, 0, 0, 0, 0, 0, 0, 0, 0, 0.000361111, 0.000361111, 0.000361111, 0.000361111, 0.051805556, 0.051805556, 0.051805556, 0.051805556, 0.290305556, 0.290305556, 0.290305556, 0.290305556, 0.306194444, 0.306194444, 0.306194444, 0.306194444, 0.370111111, 0.370111111, 0.370111111, 0.370111111, 0.905694444, 0.905694444, 0.905694444, 0.905694444, 0.958805556, 0.958805556, 0.958805556, 0.958805556, 0.921444444, 0.921444444, 0.921444444, 0.921444444, 0.640111111, 0.640111111, 0.640111111, 0.640111111, 0.709111111, 0.709111111, 0.709111111, 0.709111111, 0.513833333, 0.513833333, 0.513833333, 0.513833333, 0.198527778, 0.198527778, 0.198527778, 0.198527778, 0.089638889, 0.089638889, 0.089638889, 0.089638889, 0.002055556, 0.002055556, 0.002055556, 0.002055556, 0, 0, 0, 0, 0, 0, 0, 0, 0, 0, 0, 0, 0, 0, 0, 0, 0, 0, 0, 0, 0, 0, 0, 0, 0, 0, 0, 0, 0, 0, 0, 0, 0, 0, 0, 0, 0, 0, 0, 0, 0.001944444, 0.001944444, 0.001944444, 0.001944444, 0.107388889, 0.107388889, 0.107388889, 0.107388889, 0.22025, 0.22025, 0.22025, 0.22025, 0.199472222, 0.199472222, 0.199472222, 0.199472222, 0.218666667, 0.218666667, 0.218666667, 0.218666667, 0.0945, 0.0945, 0.0945, 0.0945, 0.624638889, 0.624638889, 0.624638889, 0.624638889, 0.957805556, 0.957805556, 0.957805556, 0.957805556, 0.861194444, 0.861194444, 0.861194444, 0.861194444, 0.6605, 0.6605, 0.6605, 0.6605, 0.542527778, 0.542527778, 0.542527778, 0.542527778, 0.314527778, 0.314527778, 0.314527778, 0.314527778, 0.096083333, 0.096083333, 0.096083333, 0.096083333, 0.000444444, 0.000444444, 0.000444444, 0.000444444, 0, 0, 0, 0, 0, 0, 0, 0, 0, 0, 0, 0, 0, 0, 0, 0, 0, 0, 0, 0, 0, 0, 0, 0, 0, 0, 0, 0, 0, 0, 0, 0, 0, 0, 0, 0, 0, 0, 0, 0, 0, 0, 0, 0, 0.000527778, 0.000527778, 0.000527778, 0.000527778, 0.087, 0.087, 0.087, 0.087, 0.268, 0.268, 0.268, 0.268, 0.155388889, 0.155388889, 0.155388889, 0.155388889, 0.200222222, 0.200222222, 0.200222222, 0.200222222, 0.221194444, 0.221194444, 0.221194444, 0.221194444, 0.082666667, 0.082666667, 0.082666667, 0.082666667, 0.220333333, 0.220333333, 0.220333333, 0.220333333, 0.261333333, 0.261333333, 0.261333333, 0.261333333, 0.067916667, 0.067916667, 0.067916667, 0.067916667, 0.085611111, 0.085611111, 0.085611111, 0.085611111, 0.052111111, 0.052111111, 0.052111111, 0.052111111, 0, 0, 0, 0, 0, 0, 0, 0, 0, 0, 0, 0, 0, 0, 0, 0, 0, 0, 0, 0, 0, 0, 0, 0, 0, 0, 0, 0, 0, 0, 0, 0, 0, 0, 0, 0, 0, 0, 0, 0, 0, 0, 0, 0, 0.012388889, 0.012388889, 0.012388889, 0.012388889, 0.106944444, 0.106944444, 0.106944444, 0.106944444, 0.415, 0.415, 0.415, 0.415, 0.653722222, 0.653722222, 0.653722222, 0.653722222, 0.866611111, 0.866611111, 0.866611111, 0.866611111, 0.841111111, 0.841111111, 0.841111111, 0.841111111, 0.608111111, 0.608111111, 0.608111111, 0.608111111, 0.944472222, 0.944472222, 0.944472222, 0.944472222, 0.472111111, 0.472111111, 0.472111111, 0.472111111, 0.621444444, 0.621444444, 0.621444444, 0.621444444, 0.603472222, 0.603472222, 0.603472222, 0.603472222, 0.536055556, 0.536055556, 0.536055556, 0.536055556, 0.165277778, 0.165277778, 0.165277778, 0.165277778, 0.015583333, 0.015583333, 0.015583333, 0.015583333, 0, 0, 0, 0, 0, 0, 0, 0, 0, 0, 0, 0, 0, 0, 0, 0, 0] 

New Loadshape.Irrad_2 npts=144 interval=1 mult=[0, 0, 0, 0, 0, 0, 0.001277778, 0.088444444, 0.335888889, 0.575027778, 0.779055556, 0.947083333, 1.000333333, 0.953777778, 0.960222222, 0.692555556, 0.340861111, 0.344888889, 0.146583333, 0.017916667, 0, 0, 0, 0, 0, 0, 0, 0, 0, 0, 0.000361111, 0.051805556, 0.290305556, 0.306194444, 0.370111111, 0.905694444, 0.958805556, 0.921444444, 0.640111111, 0.709111111, 0.513833333, 0.198527778, 0.089638889, 0.002055556, 0, 0, 0, 0, 0, 0, 0, 0, 0, 0, 0, 0.002833333, 0.063138889, 0.207694444, 0.386388889, 0.408888889, 0.566638889, 0.554888889, 0.409333333, 0.331416667, 0.159861111, 0.057638889, 0.011083333, 0, 0, 0, 0, 0, 0, 0, 0, 0, 0, 0, 0, 0.000527778, 0.087, 0.268, 0.155388889, 0.200222222, 0.221194444, 0.082666667, 0.220333333, 0.261333333, 0.067916667, 0.085611111, 0.052111111, 0, 0, 0, 0, 0, 0, 0, 0, 0, 0, 0, 0.001944444, 0.107388889, 0.22025, 0.199472222, 0.218666667, 0.0945, 0.624638889, 0.957805556, 0.861194444, 0.6605, 0.542527778, 0.314527778, 0.096083333, 0.000444444, 0, 0, 0, 0, 0, 0, 0, 0, 0, 0, 0.012388889, 0.106944444, 0.415, 0.653722222, 0.866611111, 0.841111111, 0.608111111, 0.944472222, 0.472111111, 0.621444444, 0.603472222, 0.536055556, 0.165277778, 0.015583333, 0, 0, 0, 0]



// 24-hr temp shape curve 
New Tshape.Temp_1 npts=144 interval=1 temp=[22.8, 22.8, 22.5, 22.2, 21.7, 21, 20.9, 23.1, 30.6, 37.8, 42, 47.43, 55.29, 57.57, 55.87, 46.88, 39.9, 34.32, 27.9, 27.1, 26.2, 24.9, 23.6, 20.6, 20.5, 19.9, 19.9, 19.3, 19.8, 19.9, 19.6, 20, 20.808, 26.537, 30.4725, 34.969, 41.344, 41.1825, 41.35675, 34.68, 29.75, 25.092, 23, 22.6, 22.5, 21.7, 22.3, 22.8, 18.9, 18.4, 18.1, 17.3, 17, 16.7, 16.8, 17.8, 25.2, 29.82, 33.45, 41.65, 50.35, 50.92, 49.95, 43.68, 37.38, 31.08, 24.2, 23.2, 22.1, 21, 20.4, 19.6, 23, 22.6, 21.6, 21.2, 21.3, 23.2, 22.5, 24.5, 27.24, 33.04, 35.7, 35.02, 51.49, 57.38, 58.83, 51.36, 44.94, 38.16, 30.1, 27, 25.9, 25.5, 24.7, 24, 18, 17.9, 18.4, 18.3, 18.1, 17.7, 18, 18.2, 20.4, 24, 22.246, 22.995, 26.894, 26.201, 29.792, 27.8425, 21.2, 21.9, 21.1, 20.2, 19.8, 19.6, 19.1, 19.4, 19.6, 19.5, 19.3, 18.9, 19, 18.8, 18.8, 20, 26.76, 35, 39.45, 46.07, 51.68, 53.01, 49.58, 44.64, 39.34, 32.64, 26.1, 24.3, 23.6, 22.3, 21.5, 20.8] 

New Tshape.Temp_2 npts=144 interval=1 temp=[22.8, 22.8, 22.5, 22.2, 21.7, 21, 20.9, 23.1, 30.6, 37.8, 42, 47.43, 55.29, 57.57, 55.87, 46.88, 39.9, 34.32, 27.9, 27.1, 26.2, 24.9, 23.6, 20.6, 18.9, 18.4, 18.1, 17.3, 17, 16.7, 16.8, 17.8, 25.2, 29.82, 33.45, 41.65, 50.35, 50.92, 49.95, 43.68, 37.38, 31.08, 24.2, 23.2, 22.1, 21, 20.4, 19.6, 20.5, 19.9, 19.9, 19.3, 19.8, 19.9, 19.6, 20, 20.808, 26.537, 30.4725, 34.969, 41.344, 41.1825, 41.35675, 34.68, 29.75, 25.092, 23, 22.6, 22.5, 21.7, 22.3, 22.8, 18, 17.9, 18.4, 18.3, 18.1, 17.7, 18, 18.2, 20.4, 24, 22.246, 22.995, 26.894, 26.201, 29.792, 27.8425, 21.2, 21.9, 21.1, 20.2, 19.8, 19.6, 19.1, 19.4, 23, 22.6, 21.6, 21.2, 21.3, 23.2, 22.5, 24.5, 27.24, 33.04, 35.7, 35.02, 51.49, 57.38, 58.83, 51.36, 44.94, 38.16, 30.1, 27, 25.9, 25.5, 24.7, 24, 19.6, 19.5, 19.3, 18.9, 19, 18.8, 18.8, 20, 26.76, 35, 39.45, 46.07, 51.68, 53.01, 49.58, 44.64, 39.34, 32.64, 26.1, 24.3, 23.6, 22.3, 21.5, 20.8] 


